
---------- Begin Simulation Statistics ----------
sim_seconds                                  0.002133                       # Number of seconds simulated
sim_ticks                                  2133007857                       # Number of ticks simulated
final_tick                                 2133007857                       # Number of ticks from beginning of simulation (restored from checkpoints and never reset)
sim_freq                                 1000000000000                       # Frequency of simulated ticks
host_inst_rate                                 179706                       # Simulator instruction rate (inst/s)
host_op_rate                                   301898                       # Simulator op (including micro ops) rate (op/s)
host_tick_rate                                9597808                       # Simulator tick rate (ticks/s)
host_mem_usage                               33863956                       # Number of bytes of host memory used
host_seconds                                   222.24                       # Real time elapsed on the host
sim_insts                                    39937604                       # Number of instructions simulated
sim_ops                                      67093575                       # Number of ops (including micro ops) simulated
system.voltage_domain.voltage                       1                       # Voltage in Volts
system.clk_domain.clock                          1000                       # Clock period in ticks
system.mem_ctrls.pwrStateResidencyTicks::UNDEFINED   2133007857                       # Cumulative time (in ticks) in various power states
system.mem_ctrls.bytes_read::cpu0.inst         103872                       # Number of bytes read from this memory
system.mem_ctrls.bytes_read::cpu0.data         301888                       # Number of bytes read from this memory
system.mem_ctrls.bytes_read::cpu1.inst         104448                       # Number of bytes read from this memory
system.mem_ctrls.bytes_read::cpu1.data         302400                       # Number of bytes read from this memory
system.mem_ctrls.bytes_read::cpu2.inst         104832                       # Number of bytes read from this memory
system.mem_ctrls.bytes_read::cpu2.data         302528                       # Number of bytes read from this memory
system.mem_ctrls.bytes_read::cpu3.inst         104512                       # Number of bytes read from this memory
system.mem_ctrls.bytes_read::cpu3.data         302400                       # Number of bytes read from this memory
system.mem_ctrls.bytes_read::total            1626880                       # Number of bytes read from this memory
system.mem_ctrls.bytes_inst_read::cpu0.inst       103872                       # Number of instructions bytes read from this memory
system.mem_ctrls.bytes_inst_read::cpu1.inst       104448                       # Number of instructions bytes read from this memory
system.mem_ctrls.bytes_inst_read::cpu2.inst       104832                       # Number of instructions bytes read from this memory
system.mem_ctrls.bytes_inst_read::cpu3.inst       104512                       # Number of instructions bytes read from this memory
system.mem_ctrls.bytes_inst_read::total        417664                       # Number of instructions bytes read from this memory
system.mem_ctrls.num_reads::cpu0.inst            1623                       # Number of read requests responded to by this memory
system.mem_ctrls.num_reads::cpu0.data            4717                       # Number of read requests responded to by this memory
system.mem_ctrls.num_reads::cpu1.inst            1632                       # Number of read requests responded to by this memory
system.mem_ctrls.num_reads::cpu1.data            4725                       # Number of read requests responded to by this memory
system.mem_ctrls.num_reads::cpu2.inst            1638                       # Number of read requests responded to by this memory
system.mem_ctrls.num_reads::cpu2.data            4727                       # Number of read requests responded to by this memory
system.mem_ctrls.num_reads::cpu3.inst            1633                       # Number of read requests responded to by this memory
system.mem_ctrls.num_reads::cpu3.data            4725                       # Number of read requests responded to by this memory
system.mem_ctrls.num_reads::total               25420                       # Number of read requests responded to by this memory
system.mem_ctrls.bw_read::cpu0.inst          48697430                       # Total read bandwidth from this memory (bytes/s)
system.mem_ctrls.bw_read::cpu0.data         141531593                       # Total read bandwidth from this memory (bytes/s)
system.mem_ctrls.bw_read::cpu1.inst          48967471                       # Total read bandwidth from this memory (bytes/s)
system.mem_ctrls.bw_read::cpu1.data         141771630                       # Total read bandwidth from this memory (bytes/s)
system.mem_ctrls.bw_read::cpu2.inst          49147498                       # Total read bandwidth from this memory (bytes/s)
system.mem_ctrls.bw_read::cpu2.data         141831639                       # Total read bandwidth from this memory (bytes/s)
system.mem_ctrls.bw_read::cpu3.inst          48997475                       # Total read bandwidth from this memory (bytes/s)
system.mem_ctrls.bw_read::cpu3.data         141771630                       # Total read bandwidth from this memory (bytes/s)
system.mem_ctrls.bw_read::total             762716365                       # Total read bandwidth from this memory (bytes/s)
system.mem_ctrls.bw_inst_read::cpu0.inst     48697430                       # Instruction read bandwidth from this memory (bytes/s)
system.mem_ctrls.bw_inst_read::cpu1.inst     48967471                       # Instruction read bandwidth from this memory (bytes/s)
system.mem_ctrls.bw_inst_read::cpu2.inst     49147498                       # Instruction read bandwidth from this memory (bytes/s)
system.mem_ctrls.bw_inst_read::cpu3.inst     48997475                       # Instruction read bandwidth from this memory (bytes/s)
system.mem_ctrls.bw_inst_read::total        195809874                       # Instruction read bandwidth from this memory (bytes/s)
system.mem_ctrls.bw_total::cpu0.inst         48697430                       # Total bandwidth to/from this memory (bytes/s)
system.mem_ctrls.bw_total::cpu0.data        141531593                       # Total bandwidth to/from this memory (bytes/s)
system.mem_ctrls.bw_total::cpu1.inst         48967471                       # Total bandwidth to/from this memory (bytes/s)
system.mem_ctrls.bw_total::cpu1.data        141771630                       # Total bandwidth to/from this memory (bytes/s)
system.mem_ctrls.bw_total::cpu2.inst         49147498                       # Total bandwidth to/from this memory (bytes/s)
system.mem_ctrls.bw_total::cpu2.data        141831639                       # Total bandwidth to/from this memory (bytes/s)
system.mem_ctrls.bw_total::cpu3.inst         48997475                       # Total bandwidth to/from this memory (bytes/s)
system.mem_ctrls.bw_total::cpu3.data        141771630                       # Total bandwidth to/from this memory (bytes/s)
system.mem_ctrls.bw_total::total            762716365                       # Total bandwidth to/from this memory (bytes/s)
system.pwrStateResidencyTicks::UNDEFINED   2133007857                       # Cumulative time (in ticks) in various power states
system.cpu0.branchPred.lookups                1368460                       # Number of BP lookups
system.cpu0.branchPred.condPredicted          1368460                       # Number of conditional branches predicted
system.cpu0.branchPred.condIncorrect            45710                       # Number of conditional branches incorrect
system.cpu0.branchPred.BTBLookups              892058                       # Number of BTB lookups
system.cpu0.branchPred.BTBHits                      0                       # Number of BTB hits
system.cpu0.branchPred.BTBCorrect                   0                       # Number of correct BTB predictions (this stat may not work properly.
system.cpu0.branchPred.BTBHitPct             0.000000                       # BTB Hit Percentage
system.cpu0.branchPred.usedRAS                  81105                       # Number of times the RAS was used to get a target.
system.cpu0.branchPred.RASInCorrect              3302                       # Number of incorrect RAS predictions.
system.cpu0.branchPred.indirectLookups         892058                       # Number of indirect predictor lookups.
system.cpu0.branchPred.indirectHits            685779                       # Number of indirect target hits.
system.cpu0.branchPred.indirectMisses          206279                       # Number of indirect misses.
system.cpu0.branchPredindirectMispredicted        15346                       # Number of mispredicted indirect branches.
system.cpu_voltage_domain.voltage                   1                       # Voltage in Volts
system.cpu_clk_domain.clock                       333                       # Clock period in ticks
system.cpu0.dtb.walker.pwrStateResidencyTicks::UNDEFINED   2133007857                       # Cumulative time (in ticks) in various power states
system.cpu0.dtb.rdAccesses                    3842579                       # TLB accesses on read requests
system.cpu0.dtb.wrAccesses                    1430047                       # TLB accesses on write requests
system.cpu0.dtb.rdMisses                         1707                       # TLB misses on read requests
system.cpu0.dtb.wrMisses                          521                       # TLB misses on write requests
system.cpu0.apic_clk_domain.clock                5328                       # Clock period in ticks
system.cpu0.interrupts.pwrStateResidencyTicks::UNDEFINED   2133007857                       # Cumulative time (in ticks) in various power states
system.cpu0.itb.walker.pwrStateResidencyTicks::UNDEFINED   2133007857                       # Cumulative time (in ticks) in various power states
system.cpu0.itb.rdAccesses                          0                       # TLB accesses on read requests
system.cpu0.itb.wrAccesses                    1008611                       # TLB accesses on write requests
system.cpu0.itb.rdMisses                            0                       # TLB misses on read requests
system.cpu0.itb.wrMisses                          261                       # TLB misses on write requests
system.cpu0.workload.numSyscalls                   34                       # Number of system calls
system.cpu0.pwrStateResidencyTicks::ON     2133007857                       # Cumulative time (in ticks) in various power states
system.cpu0.numCycles                         6405430                       # number of cpu cycles simulated
system.cpu0.numWorkItemsStarted                     0                       # number of work items this cpu started
system.cpu0.numWorkItemsCompleted                   0                       # number of work items this cpu completed
system.cpu0.fetch.icacheStallCycles           1082421                       # Number of cycles fetch is stalled on an Icache miss
system.cpu0.fetch.Insts                      11846274                       # Number of instructions fetch has processed
system.cpu0.fetch.Branches                    1368460                       # Number of branches that fetch encountered
system.cpu0.fetch.predictedBranches            766884                       # Number of branches that fetch has predicted taken
system.cpu0.fetch.Cycles                      5141027                       # Number of cycles fetch has run and was not squashing or blocked
system.cpu0.fetch.SquashCycles                  92104                       # Number of cycles fetch has spent squashing
system.cpu0.fetch.TlbCycles                         2                       # Number of cycles fetch has spent waiting for tlb
system.cpu0.fetch.MiscStallCycles                  83                       # Number of cycles fetch has spent waiting on interrupts, or bad addresses, or out of MSHRs
system.cpu0.fetch.PendingTrapStallCycles          832                       # Number of stall cycles due to pending traps
system.cpu0.fetch.PendingQuiesceStallCycles            7                       # Number of stall cycles due to pending quiesce instructions
system.cpu0.fetch.IcacheWaitRetryStallCycles          347                       # Number of stall cycles due to full MSHR
system.cpu0.fetch.CacheLines                  1008452                       # Number of cache lines fetched
system.cpu0.fetch.IcacheSquashes                 8420                       # Number of outstanding Icache misses that were squashed
system.cpu0.fetch.rateDist::samples           6270771                       # Number of instructions fetched each cycle (Total)
system.cpu0.fetch.rateDist::mean             3.264435                       # Number of instructions fetched each cycle (Total)
system.cpu0.fetch.rateDist::stdev            3.516562                       # Number of instructions fetched each cycle (Total)
system.cpu0.fetch.rateDist::underflows              0      0.00%      0.00% # Number of instructions fetched each cycle (Total)
system.cpu0.fetch.rateDist::0                 2928248     46.70%     46.70% # Number of instructions fetched each cycle (Total)
system.cpu0.fetch.rateDist::1                  214429      3.42%     50.12% # Number of instructions fetched each cycle (Total)
system.cpu0.fetch.rateDist::2                  221897      3.54%     53.65% # Number of instructions fetched each cycle (Total)
system.cpu0.fetch.rateDist::3                  173235      2.76%     56.42% # Number of instructions fetched each cycle (Total)
system.cpu0.fetch.rateDist::4                  293859      4.69%     61.10% # Number of instructions fetched each cycle (Total)
system.cpu0.fetch.rateDist::5                  185454      2.96%     64.06% # Number of instructions fetched each cycle (Total)
system.cpu0.fetch.rateDist::6                  363554      5.80%     69.86% # Number of instructions fetched each cycle (Total)
system.cpu0.fetch.rateDist::7                  112196      1.79%     71.65% # Number of instructions fetched each cycle (Total)
system.cpu0.fetch.rateDist::8                 1777899     28.35%    100.00% # Number of instructions fetched each cycle (Total)
system.cpu0.fetch.rateDist::overflows               0      0.00%    100.00% # Number of instructions fetched each cycle (Total)
system.cpu0.fetch.rateDist::min_value               0                       # Number of instructions fetched each cycle (Total)
system.cpu0.fetch.rateDist::max_value               8                       # Number of instructions fetched each cycle (Total)
system.cpu0.fetch.rateDist::total             6270771                       # Number of instructions fetched each cycle (Total)
system.cpu0.fetch.branchRate                 0.213641                       # Number of branch fetches per cycle
system.cpu0.fetch.rate                       1.849411                       # Number of inst fetches per cycle
system.cpu0.decode.IdleCycles                  688181                       # Number of cycles decode is idle
system.cpu0.decode.BlockedCycles              2863504                       # Number of cycles decode is blocked
system.cpu0.decode.RunCycles                  1823716                       # Number of cycles decode is running
system.cpu0.decode.UnblockCycles               849318                       # Number of cycles decode is unblocking
system.cpu0.decode.SquashCycles                 46052                       # Number of cycles decode is squashing
system.cpu0.decode.DecodedInsts              19924383                       # Number of instructions handled by decode
system.cpu0.rename.SquashCycles                 46052                       # Number of cycles rename is squashing
system.cpu0.rename.IdleCycles                 1057901                       # Number of cycles rename is idle
system.cpu0.rename.BlockCycles                 454481                       # Number of cycles rename is blocking
system.cpu0.rename.serializeStallCycles          3767                       # count of cycles rename stalled for serializing inst
system.cpu0.rename.RunCycles                  2298488                       # Number of cycles rename is running
system.cpu0.rename.UnblockCycles              2410082                       # Number of cycles rename is unblocking
system.cpu0.rename.RenamedInsts              19677876                       # Number of instructions processed by rename
system.cpu0.rename.ROBFullEvents                 4518                       # Number of times rename has blocked due to ROB full
system.cpu0.rename.IQFullEvents                266153                       # Number of times rename has blocked due to IQ full
system.cpu0.rename.LQFullEvents                234959                       # Number of times rename has blocked due to LQ full
system.cpu0.rename.SQFullEvents               1655447                       # Number of times rename has blocked due to SQ full
system.cpu0.rename.RenamedOperands           25446961                       # Number of destination operands rename has renamed
system.cpu0.rename.RenameLookups             59389846                       # Number of register rename lookups that rename has made
system.cpu0.rename.int_rename_lookups        32033774                       # Number of integer rename lookups
system.cpu0.rename.fp_rename_lookups          3238715                       # Number of floating rename lookups
system.cpu0.rename.CommittedMaps             21875565                       # Number of HB maps that are committed
system.cpu0.rename.UndoneMaps                 3571248                       # Number of HB maps that are undone due to squashing
system.cpu0.rename.serializingInsts               139                       # count of serializing insts renamed
system.cpu0.rename.tempSerializingInsts           141                       # count of temporary serializing insts renamed
system.cpu0.rename.skidInsts                  4587323                       # count of insts added to the skid buffer
system.cpu0.memDep0.insertedLoads             3900389                       # Number of loads inserted to the mem dependence unit.
system.cpu0.memDep0.insertedStores            1466193                       # Number of stores inserted to the mem dependence unit.
system.cpu0.memDep0.conflictingLoads           145525                       # Number of conflicting loads.
system.cpu0.memDep0.conflictingStores          179556                       # Number of conflicting stores.
system.cpu0.iq.iqInstsAdded                  19234923                       # Number of instructions added to the IQ (excludes non-spec)
system.cpu0.iq.iqNonSpecInstsAdded               2330                       # Number of non-speculative instructions added to the IQ
system.cpu0.iq.iqInstsIssued                 18361460                       # Number of instructions issued
system.cpu0.iq.iqSquashedInstsIssued            71541                       # Number of squashed instructions issued
system.cpu0.iq.iqSquashedInstsExamined        2453115                       # Number of squashed instructions iterated over during squash; mainly for profiling
system.cpu0.iq.iqSquashedOperandsExamined      3397902                       # Number of squashed operands that are examined and possibly removed from graph
system.cpu0.iq.iqSquashedNonSpecRemoved          1996                       # Number of squashed non-spec instructions that were removed
system.cpu0.iq.issued_per_cycle::samples      6270771                       # Number of insts issued each cycle
system.cpu0.iq.issued_per_cycle::mean        2.928102                       # Number of insts issued each cycle
system.cpu0.iq.issued_per_cycle::stdev       2.356812                       # Number of insts issued each cycle
system.cpu0.iq.issued_per_cycle::underflows            0      0.00%      0.00% # Number of insts issued each cycle
system.cpu0.iq.issued_per_cycle::0            1364153     21.75%     21.75% # Number of insts issued each cycle
system.cpu0.iq.issued_per_cycle::1             651523     10.39%     32.14% # Number of insts issued each cycle
system.cpu0.iq.issued_per_cycle::2             965060     15.39%     47.53% # Number of insts issued each cycle
system.cpu0.iq.issued_per_cycle::3             928881     14.81%     62.35% # Number of insts issued each cycle
system.cpu0.iq.issued_per_cycle::4             704463     11.23%     73.58% # Number of insts issued each cycle
system.cpu0.iq.issued_per_cycle::5             613159      9.78%     83.36% # Number of insts issued each cycle
system.cpu0.iq.issued_per_cycle::6             459221      7.32%     90.68% # Number of insts issued each cycle
system.cpu0.iq.issued_per_cycle::7             320287      5.11%     95.79% # Number of insts issued each cycle
system.cpu0.iq.issued_per_cycle::8             264024      4.21%    100.00% # Number of insts issued each cycle
system.cpu0.iq.issued_per_cycle::overflows            0      0.00%    100.00% # Number of insts issued each cycle
system.cpu0.iq.issued_per_cycle::min_value            0                       # Number of insts issued each cycle
system.cpu0.iq.issued_per_cycle::max_value            8                       # Number of insts issued each cycle
system.cpu0.iq.issued_per_cycle::total        6270771                       # Number of insts issued each cycle
system.cpu0.iq.fu_full::No_OpClass                  0      0.00%      0.00% # attempts to use FU when none available
system.cpu0.iq.fu_full::IntAlu                 141682     60.35%     60.35% # attempts to use FU when none available
system.cpu0.iq.fu_full::IntMult                     0      0.00%     60.35% # attempts to use FU when none available
system.cpu0.iq.fu_full::IntDiv                      0      0.00%     60.35% # attempts to use FU when none available
system.cpu0.iq.fu_full::FloatAdd                33085     14.09%     74.44% # attempts to use FU when none available
system.cpu0.iq.fu_full::FloatCmp                    0      0.00%     74.44% # attempts to use FU when none available
system.cpu0.iq.fu_full::FloatCvt                    0      0.00%     74.44% # attempts to use FU when none available
system.cpu0.iq.fu_full::FloatMult                   0      0.00%     74.44% # attempts to use FU when none available
system.cpu0.iq.fu_full::FloatMultAcc                0      0.00%     74.44% # attempts to use FU when none available
system.cpu0.iq.fu_full::FloatDiv                    0      0.00%     74.44% # attempts to use FU when none available
system.cpu0.iq.fu_full::FloatMisc                   0      0.00%     74.44% # attempts to use FU when none available
system.cpu0.iq.fu_full::FloatSqrt                   0      0.00%     74.44% # attempts to use FU when none available
system.cpu0.iq.fu_full::SimdAdd                     0      0.00%     74.44% # attempts to use FU when none available
system.cpu0.iq.fu_full::SimdAddAcc                  0      0.00%     74.44% # attempts to use FU when none available
system.cpu0.iq.fu_full::SimdAlu                     0      0.00%     74.44% # attempts to use FU when none available
system.cpu0.iq.fu_full::SimdCmp                     0      0.00%     74.44% # attempts to use FU when none available
system.cpu0.iq.fu_full::SimdCvt                     0      0.00%     74.44% # attempts to use FU when none available
system.cpu0.iq.fu_full::SimdMisc                    0      0.00%     74.44% # attempts to use FU when none available
system.cpu0.iq.fu_full::SimdMult                    0      0.00%     74.44% # attempts to use FU when none available
system.cpu0.iq.fu_full::SimdMultAcc                 0      0.00%     74.44% # attempts to use FU when none available
system.cpu0.iq.fu_full::SimdShift                   0      0.00%     74.44% # attempts to use FU when none available
system.cpu0.iq.fu_full::SimdShiftAcc                0      0.00%     74.44% # attempts to use FU when none available
system.cpu0.iq.fu_full::SimdSqrt                    0      0.00%     74.44% # attempts to use FU when none available
system.cpu0.iq.fu_full::SimdFloatAdd                0      0.00%     74.44% # attempts to use FU when none available
system.cpu0.iq.fu_full::SimdFloatAlu                0      0.00%     74.44% # attempts to use FU when none available
system.cpu0.iq.fu_full::SimdFloatCmp                0      0.00%     74.44% # attempts to use FU when none available
system.cpu0.iq.fu_full::SimdFloatCvt                0      0.00%     74.44% # attempts to use FU when none available
system.cpu0.iq.fu_full::SimdFloatDiv                0      0.00%     74.44% # attempts to use FU when none available
system.cpu0.iq.fu_full::SimdFloatMisc               0      0.00%     74.44% # attempts to use FU when none available
system.cpu0.iq.fu_full::SimdFloatMult               0      0.00%     74.44% # attempts to use FU when none available
system.cpu0.iq.fu_full::SimdFloatMultAcc            0      0.00%     74.44% # attempts to use FU when none available
system.cpu0.iq.fu_full::SimdFloatSqrt               0      0.00%     74.44% # attempts to use FU when none available
system.cpu0.iq.fu_full::MemRead                 43776     18.65%     93.09% # attempts to use FU when none available
system.cpu0.iq.fu_full::MemWrite                 5673      2.42%     95.51% # attempts to use FU when none available
system.cpu0.iq.fu_full::FloatMemRead            10503      4.47%     99.98% # attempts to use FU when none available
system.cpu0.iq.fu_full::FloatMemWrite              46      0.02%    100.00% # attempts to use FU when none available
system.cpu0.iq.fu_full::IprAccess                   0      0.00%    100.00% # attempts to use FU when none available
system.cpu0.iq.fu_full::InstPrefetch                0      0.00%    100.00% # attempts to use FU when none available
system.cpu0.iq.FU_type_0::No_OpClass            87942      0.48%      0.48% # Type of FU issued
system.cpu0.iq.FU_type_0::IntAlu             11816429     64.35%     64.83% # Type of FU issued
system.cpu0.iq.FU_type_0::IntMult               88239      0.48%     65.31% # Type of FU issued
system.cpu0.iq.FU_type_0::IntDiv                  239      0.00%     65.32% # Type of FU issued
system.cpu0.iq.FU_type_0::FloatAdd            1081578      5.89%     71.21% # Type of FU issued
system.cpu0.iq.FU_type_0::FloatCmp                  0      0.00%     71.21% # Type of FU issued
system.cpu0.iq.FU_type_0::FloatCvt                  0      0.00%     71.21% # Type of FU issued
system.cpu0.iq.FU_type_0::FloatMult                 0      0.00%     71.21% # Type of FU issued
system.cpu0.iq.FU_type_0::FloatMultAcc              0      0.00%     71.21% # Type of FU issued
system.cpu0.iq.FU_type_0::FloatDiv                  0      0.00%     71.21% # Type of FU issued
system.cpu0.iq.FU_type_0::FloatMisc                 0      0.00%     71.21% # Type of FU issued
system.cpu0.iq.FU_type_0::FloatSqrt                 0      0.00%     71.21% # Type of FU issued
system.cpu0.iq.FU_type_0::SimdAdd                   0      0.00%     71.21% # Type of FU issued
system.cpu0.iq.FU_type_0::SimdAddAcc                0      0.00%     71.21% # Type of FU issued
system.cpu0.iq.FU_type_0::SimdAlu                   0      0.00%     71.21% # Type of FU issued
system.cpu0.iq.FU_type_0::SimdCmp                   0      0.00%     71.21% # Type of FU issued
system.cpu0.iq.FU_type_0::SimdCvt                   0      0.00%     71.21% # Type of FU issued
system.cpu0.iq.FU_type_0::SimdMisc                  0      0.00%     71.21% # Type of FU issued
system.cpu0.iq.FU_type_0::SimdMult                  0      0.00%     71.21% # Type of FU issued
system.cpu0.iq.FU_type_0::SimdMultAcc               0      0.00%     71.21% # Type of FU issued
system.cpu0.iq.FU_type_0::SimdShift                 0      0.00%     71.21% # Type of FU issued
system.cpu0.iq.FU_type_0::SimdShiftAcc              0      0.00%     71.21% # Type of FU issued
system.cpu0.iq.FU_type_0::SimdSqrt                  0      0.00%     71.21% # Type of FU issued
system.cpu0.iq.FU_type_0::SimdFloatAdd              0      0.00%     71.21% # Type of FU issued
system.cpu0.iq.FU_type_0::SimdFloatAlu              0      0.00%     71.21% # Type of FU issued
system.cpu0.iq.FU_type_0::SimdFloatCmp              0      0.00%     71.21% # Type of FU issued
system.cpu0.iq.FU_type_0::SimdFloatCvt              0      0.00%     71.21% # Type of FU issued
system.cpu0.iq.FU_type_0::SimdFloatDiv              0      0.00%     71.21% # Type of FU issued
system.cpu0.iq.FU_type_0::SimdFloatMisc             0      0.00%     71.21% # Type of FU issued
system.cpu0.iq.FU_type_0::SimdFloatMult             0      0.00%     71.21% # Type of FU issued
system.cpu0.iq.FU_type_0::SimdFloatMultAcc            0      0.00%     71.21% # Type of FU issued
system.cpu0.iq.FU_type_0::SimdFloatSqrt             0      0.00%     71.21% # Type of FU issued
system.cpu0.iq.FU_type_0::MemRead             3483248     18.97%     90.18% # Type of FU issued
system.cpu0.iq.FU_type_0::MemWrite            1428459      7.78%     97.96% # Type of FU issued
system.cpu0.iq.FU_type_0::FloatMemRead         368533      2.01%     99.96% # Type of FU issued
system.cpu0.iq.FU_type_0::FloatMemWrite          6793      0.04%    100.00% # Type of FU issued
system.cpu0.iq.FU_type_0::IprAccess                 0      0.00%    100.00% # Type of FU issued
system.cpu0.iq.FU_type_0::InstPrefetch              0      0.00%    100.00% # Type of FU issued
system.cpu0.iq.FU_type_0::total              18361460                       # Type of FU issued
system.cpu0.iq.rate                          2.866546                       # Inst issue rate
system.cpu0.iq.fu_busy_cnt                     234765                       # FU busy when requested
system.cpu0.iq.fu_busy_rate                  0.012786                       # FU busy rate (busy events/executed inst)
system.cpu0.iq.int_inst_queue_reads          40021490                       # Number of integer instruction queue reads
system.cpu0.iq.int_inst_queue_writes         19367286                       # Number of integer instruction queue writes
system.cpu0.iq.int_inst_queue_wakeup_accesses     16643810                       # Number of integer instruction queue wakeup accesses
system.cpu0.iq.fp_inst_queue_reads            3278498                       # Number of floating instruction queue reads
system.cpu0.iq.fp_inst_queue_writes           2323392                       # Number of floating instruction queue writes
system.cpu0.iq.fp_inst_queue_wakeup_accesses      1584092                       # Number of floating instruction queue wakeup accesses
system.cpu0.iq.vec_inst_queue_reads                 0                       # Number of vector instruction queue reads
system.cpu0.iq.vec_inst_queue_writes                0                       # Number of vector instruction queue writes
system.cpu0.iq.vec_inst_queue_wakeup_accesses            0                       # Number of vector instruction queue wakeup accesses
system.cpu0.iq.int_alu_accesses              16847808                       # Number of integer alu accesses
system.cpu0.iq.fp_alu_accesses                1660475                       # Number of floating point alu accesses
system.cpu0.iq.vec_alu_accesses                     0                       # Number of vector alu accesses
system.cpu0.iew.lsq.thread0.forwLoads          303304                       # Number of loads that had data forwarded from stores
system.cpu0.iew.lsq.thread0.invAddrLoads            0                       # Number of loads ignored due to an invalid address
system.cpu0.iew.lsq.thread0.squashedLoads       228530                       # Number of loads squashed
system.cpu0.iew.lsq.thread0.ignoredResponses          344                       # Number of memory responses ignored because the instruction is squashed
system.cpu0.iew.lsq.thread0.memOrderViolation          327                       # Number of memory ordering violations
system.cpu0.iew.lsq.thread0.squashedStores        66850                       # Number of stores squashed
system.cpu0.iew.lsq.thread0.invAddrSwpfs            0                       # Number of software prefetches ignored due to an invalid address
system.cpu0.iew.lsq.thread0.blockedLoads            0                       # Number of blocked loads due to partial load-store forwarding
system.cpu0.iew.lsq.thread0.rescheduledLoads           32                       # Number of loads that were rescheduled
system.cpu0.iew.lsq.thread0.cacheBlocked         2070                       # Number of times an access to memory failed due to the cache being blocked
system.cpu0.iew.iewIdleCycles                       0                       # Number of cycles IEW is idle
system.cpu0.iew.iewSquashCycles                 46052                       # Number of cycles IEW is squashing
system.cpu0.iew.iewBlockCycles                 313543                       # Number of cycles IEW is blocking
system.cpu0.iew.iewUnblockCycles                68042                       # Number of cycles IEW is unblocking
system.cpu0.iew.iewDispatchedInsts           19237253                       # Number of instructions dispatched to IQ
system.cpu0.iew.iewDispSquashedInsts             1201                       # Number of squashed instructions skipped by dispatch
system.cpu0.iew.iewDispLoadInsts              3900389                       # Number of dispatched load instructions
system.cpu0.iew.iewDispStoreInsts             1466193                       # Number of dispatched store instructions
system.cpu0.iew.iewDispNonSpecInsts               865                       # Number of dispatched non-speculative instructions
system.cpu0.iew.iewIQFullEvents                   314                       # Number of times the IQ has become full, causing a stall
system.cpu0.iew.iewLSQFullEvents                67125                       # Number of times the LSQ has become full, causing a stall
system.cpu0.iew.memOrderViolationEvents           327                       # Number of memory order violations
system.cpu0.iew.predictedTakenIncorrect         13047                       # Number of branches that were predicted taken incorrectly
system.cpu0.iew.predictedNotTakenIncorrect        48781                       # Number of branches that were predicted not taken incorrectly
system.cpu0.iew.branchMispredicts               61828                       # Number of branch mispredicts detected at execute
system.cpu0.iew.iewExecutedInsts             18269183                       # Number of executed instructions
system.cpu0.iew.iewExecLoadInsts              3832089                       # Number of load instructions executed
system.cpu0.iew.iewExecSquashedInsts            92268                       # Number of squashed instructions skipped in execute
system.cpu0.iew.exec_swp                            0                       # number of swp insts executed
system.cpu0.iew.exec_nop                            0                       # number of nop insts executed
system.cpu0.iew.exec_refs                     5262088                       # number of memory reference insts executed
system.cpu0.iew.exec_branches                 1011757                       # Number of branches executed
system.cpu0.iew.exec_stores                   1429999                       # Number of stores executed
system.cpu0.iew.exec_rate                    2.852140                       # Inst execution rate
system.cpu0.iew.wb_sent                      18246221                       # cumulative count of insts sent to commit
system.cpu0.iew.wb_count                     18227902                       # cumulative count of insts written-back
system.cpu0.iew.wb_producers                 14757950                       # num instructions producing a value
system.cpu0.iew.wb_consumers                 28137546                       # num instructions consuming a value
system.cpu0.iew.wb_rate                      2.845695                       # insts written-back per cycle
system.cpu0.iew.wb_fanout                    0.524493                       # average fanout of values written-back
system.cpu0.commit.commitSquashedInsts        2453207                       # The number of squashed insts skipped by commit
system.cpu0.commit.commitNonSpecStalls            334                       # The number of times commit has been forced to stall to communicate backwards
system.cpu0.commit.branchMispredicts            45776                       # The number of times a branch was mispredicted
system.cpu0.commit.committed_per_cycle::samples      5930065                       # Number of insts commited each cycle
system.cpu0.commit.committed_per_cycle::mean     2.830327                       # Number of insts commited each cycle
system.cpu0.commit.committed_per_cycle::stdev     2.921376                       # Number of insts commited each cycle
system.cpu0.commit.committed_per_cycle::underflows            0      0.00%      0.00% # Number of insts commited each cycle
system.cpu0.commit.committed_per_cycle::0      1411550     23.80%     23.80% # Number of insts commited each cycle
system.cpu0.commit.committed_per_cycle::1      1664089     28.06%     51.87% # Number of insts commited each cycle
system.cpu0.commit.committed_per_cycle::2       416359      7.02%     58.89% # Number of insts commited each cycle
system.cpu0.commit.committed_per_cycle::3       548658      9.25%     68.14% # Number of insts commited each cycle
system.cpu0.commit.committed_per_cycle::4       413069      6.97%     75.10% # Number of insts commited each cycle
system.cpu0.commit.committed_per_cycle::5       133238      2.25%     77.35% # Number of insts commited each cycle
system.cpu0.commit.committed_per_cycle::6       139293      2.35%     79.70% # Number of insts commited each cycle
system.cpu0.commit.committed_per_cycle::7       143451      2.42%     82.12% # Number of insts commited each cycle
system.cpu0.commit.committed_per_cycle::8      1060358     17.88%    100.00% # Number of insts commited each cycle
system.cpu0.commit.committed_per_cycle::overflows            0      0.00%    100.00% # Number of insts commited each cycle
system.cpu0.commit.committed_per_cycle::min_value            0                       # Number of insts commited each cycle
system.cpu0.commit.committed_per_cycle::max_value            8                       # Number of insts commited each cycle
system.cpu0.commit.committed_per_cycle::total      5930065                       # Number of insts commited each cycle
system.cpu0.commit.committedInsts             9988094                       # Number of instructions committed
system.cpu0.commit.committedOps              16784026                       # Number of ops (including micro ops) committed
system.cpu0.commit.swp_count                        0                       # Number of s/w prefetches committed
system.cpu0.commit.refs                       5071189                       # Number of memory references committed
system.cpu0.commit.loads                      3671847                       # Number of loads committed
system.cpu0.commit.membars                        200                       # Number of memory barriers committed
system.cpu0.commit.branches                    917948                       # Number of branches committed
system.cpu0.commit.vec_insts                        0                       # Number of committed Vector instructions.
system.cpu0.commit.fp_insts                   1330293                       # Number of committed floating point instructions.
system.cpu0.commit.int_insts                 15767394                       # Number of committed integer instructions.
system.cpu0.commit.function_calls               58378                       # Number of function calls committed.
system.cpu0.commit.op_class_0::No_OpClass        79036      0.47%      0.47% # Class of committed instruction
system.cpu0.commit.op_class_0::IntAlu        10629585     63.33%     63.80% # Class of committed instruction
system.cpu0.commit.op_class_0::IntMult          85794      0.51%     64.31% # Class of committed instruction
system.cpu0.commit.op_class_0::IntDiv             210      0.00%     64.31% # Class of committed instruction
system.cpu0.commit.op_class_0::FloatAdd        918212      5.47%     69.79% # Class of committed instruction
system.cpu0.commit.op_class_0::FloatCmp             0      0.00%     69.79% # Class of committed instruction
system.cpu0.commit.op_class_0::FloatCvt             0      0.00%     69.79% # Class of committed instruction
system.cpu0.commit.op_class_0::FloatMult            0      0.00%     69.79% # Class of committed instruction
system.cpu0.commit.op_class_0::FloatMultAcc            0      0.00%     69.79% # Class of committed instruction
system.cpu0.commit.op_class_0::FloatDiv             0      0.00%     69.79% # Class of committed instruction
system.cpu0.commit.op_class_0::FloatMisc            0      0.00%     69.79% # Class of committed instruction
system.cpu0.commit.op_class_0::FloatSqrt            0      0.00%     69.79% # Class of committed instruction
system.cpu0.commit.op_class_0::SimdAdd              0      0.00%     69.79% # Class of committed instruction
system.cpu0.commit.op_class_0::SimdAddAcc            0      0.00%     69.79% # Class of committed instruction
system.cpu0.commit.op_class_0::SimdAlu              0      0.00%     69.79% # Class of committed instruction
system.cpu0.commit.op_class_0::SimdCmp              0      0.00%     69.79% # Class of committed instruction
system.cpu0.commit.op_class_0::SimdCvt              0      0.00%     69.79% # Class of committed instruction
system.cpu0.commit.op_class_0::SimdMisc             0      0.00%     69.79% # Class of committed instruction
system.cpu0.commit.op_class_0::SimdMult             0      0.00%     69.79% # Class of committed instruction
system.cpu0.commit.op_class_0::SimdMultAcc            0      0.00%     69.79% # Class of committed instruction
system.cpu0.commit.op_class_0::SimdShift            0      0.00%     69.79% # Class of committed instruction
system.cpu0.commit.op_class_0::SimdShiftAcc            0      0.00%     69.79% # Class of committed instruction
system.cpu0.commit.op_class_0::SimdSqrt             0      0.00%     69.79% # Class of committed instruction
system.cpu0.commit.op_class_0::SimdFloatAdd            0      0.00%     69.79% # Class of committed instruction
system.cpu0.commit.op_class_0::SimdFloatAlu            0      0.00%     69.79% # Class of committed instruction
system.cpu0.commit.op_class_0::SimdFloatCmp            0      0.00%     69.79% # Class of committed instruction
system.cpu0.commit.op_class_0::SimdFloatCvt            0      0.00%     69.79% # Class of committed instruction
system.cpu0.commit.op_class_0::SimdFloatDiv            0      0.00%     69.79% # Class of committed instruction
system.cpu0.commit.op_class_0::SimdFloatMisc            0      0.00%     69.79% # Class of committed instruction
system.cpu0.commit.op_class_0::SimdFloatMult            0      0.00%     69.79% # Class of committed instruction
system.cpu0.commit.op_class_0::SimdFloatMultAcc            0      0.00%     69.79% # Class of committed instruction
system.cpu0.commit.op_class_0::SimdFloatSqrt            0      0.00%     69.79% # Class of committed instruction
system.cpu0.commit.op_class_0::MemRead        3411476     20.33%     90.11% # Class of committed instruction
system.cpu0.commit.op_class_0::MemWrite       1393637      8.30%     98.41% # Class of committed instruction
system.cpu0.commit.op_class_0::FloatMemRead       260371      1.55%     99.97% # Class of committed instruction
system.cpu0.commit.op_class_0::FloatMemWrite         5705      0.03%    100.00% # Class of committed instruction
system.cpu0.commit.op_class_0::IprAccess            0      0.00%    100.00% # Class of committed instruction
system.cpu0.commit.op_class_0::InstPrefetch            0      0.00%    100.00% # Class of committed instruction
system.cpu0.commit.op_class_0::total         16784026                       # Class of committed instruction
system.cpu0.commit.bw_lim_events              1060358                       # number cycles where commit BW limit reached
system.cpu0.rob.rob_reads                    24106940                       # The number of ROB reads
system.cpu0.rob.rob_writes                   38818979                       # The number of ROB writes
system.cpu0.timesIdled                            895                       # Number of times that the entire CPU went into an idle state and unscheduled itself
system.cpu0.idleCycles                         134659                       # Total number of cycles that the CPU has spent unscheduled due to idling
system.cpu0.committedInsts                    9988094                       # Number of Instructions Simulated
system.cpu0.committedOps                     16784026                       # Number of Ops (including micro ops) Simulated
system.cpu0.cpi                              0.641307                       # CPI: Cycles Per Instruction
system.cpu0.cpi_total                        0.641307                       # CPI: Total CPI of All Threads
system.cpu0.ipc                              1.559317                       # IPC: Instructions Per Cycle
system.cpu0.ipc_total                        1.559317                       # IPC: Total IPC of All Threads
system.cpu0.int_regfile_reads                30160851                       # number of integer regfile reads
system.cpu0.int_regfile_writes               14377864                       # number of integer regfile writes
system.cpu0.fp_regfile_reads                  2686491                       # number of floating regfile reads
system.cpu0.fp_regfile_writes                 1343932                       # number of floating regfile writes
system.cpu0.cc_regfile_reads                 14738006                       # number of cc regfile reads
system.cpu0.cc_regfile_writes                 7880677                       # number of cc regfile writes
system.cpu0.misc_regfile_reads                7415209                       # number of misc regfile reads
system.cpu0.dcache.tags.pwrStateResidencyTicks::UNDEFINED   2133007857                       # Cumulative time (in ticks) in various power states
system.cpu0.dcache.tags.replacements            42368                       # number of replacements
system.cpu0.dcache.tags.tagsinuse          500.825134                       # Cycle average of tags in use
system.cpu0.dcache.tags.total_refs            4882386                       # Total number of references to valid blocks.
system.cpu0.dcache.tags.sampled_refs            42880                       # Sample count of references to valid blocks.
system.cpu0.dcache.tags.avg_refs           113.861614                       # Average number of references to valid blocks.
system.cpu0.dcache.tags.warmup_cycle           160173                       # Cycle when the warmup percentage was hit.
system.cpu0.dcache.tags.occ_blocks::cpu0.data   500.825134                       # Average occupied blocks per requestor
system.cpu0.dcache.tags.occ_percent::cpu0.data     0.978174                       # Average percentage of cache occupancy
system.cpu0.dcache.tags.occ_percent::total     0.978174                       # Average percentage of cache occupancy
system.cpu0.dcache.tags.occ_task_id_blocks::1024          512                       # Occupied blocks per task id
system.cpu0.dcache.tags.age_task_id_blocks_1024::0           10                       # Occupied blocks per task id
system.cpu0.dcache.tags.age_task_id_blocks_1024::1          455                       # Occupied blocks per task id
system.cpu0.dcache.tags.age_task_id_blocks_1024::2            2                       # Occupied blocks per task id
system.cpu0.dcache.tags.age_task_id_blocks_1024::3           45                       # Occupied blocks per task id
system.cpu0.dcache.tags.occ_task_id_percent::1024            1                       # Percentage of cache occupancy per task id
system.cpu0.dcache.tags.tag_accesses         39526704                       # Number of tag accesses
system.cpu0.dcache.tags.data_accesses        39526704                       # Number of data accesses
system.cpu0.dcache.pwrStateResidencyTicks::UNDEFINED   2133007857                       # Cumulative time (in ticks) in various power states
system.cpu0.dcache.ReadReq_hits::cpu0.data      3512691                       # number of ReadReq hits
system.cpu0.dcache.ReadReq_hits::total        3512691                       # number of ReadReq hits
system.cpu0.dcache.WriteReq_hits::cpu0.data      1369664                       # number of WriteReq hits
system.cpu0.dcache.WriteReq_hits::total       1369664                       # number of WriteReq hits
system.cpu0.dcache.SoftPFReq_hits::cpu0.data            4                       # number of SoftPFReq hits
system.cpu0.dcache.SoftPFReq_hits::total            4                       # number of SoftPFReq hits
system.cpu0.dcache.demand_hits::cpu0.data      4882355                       # number of demand (read+write) hits
system.cpu0.dcache.demand_hits::total         4882355                       # number of demand (read+write) hits
system.cpu0.dcache.overall_hits::cpu0.data      4882359                       # number of overall hits
system.cpu0.dcache.overall_hits::total        4882359                       # number of overall hits
system.cpu0.dcache.ReadReq_misses::cpu0.data        21177                       # number of ReadReq misses
system.cpu0.dcache.ReadReq_misses::total        21177                       # number of ReadReq misses
system.cpu0.dcache.WriteReq_misses::cpu0.data        29718                       # number of WriteReq misses
system.cpu0.dcache.WriteReq_misses::total        29718                       # number of WriteReq misses
system.cpu0.dcache.SoftPFReq_misses::cpu0.data         2224                       # number of SoftPFReq misses
system.cpu0.dcache.SoftPFReq_misses::total         2224                       # number of SoftPFReq misses
system.cpu0.dcache.demand_misses::cpu0.data        50895                       # number of demand (read+write) misses
system.cpu0.dcache.demand_misses::total         50895                       # number of demand (read+write) misses
system.cpu0.dcache.overall_misses::cpu0.data        53119                       # number of overall misses
system.cpu0.dcache.overall_misses::total        53119                       # number of overall misses
system.cpu0.dcache.ReadReq_miss_latency::cpu0.data    216561222                       # number of ReadReq miss cycles
system.cpu0.dcache.ReadReq_miss_latency::total    216561222                       # number of ReadReq miss cycles
system.cpu0.dcache.WriteReq_miss_latency::cpu0.data    335661996                       # number of WriteReq miss cycles
system.cpu0.dcache.WriteReq_miss_latency::total    335661996                       # number of WriteReq miss cycles
system.cpu0.dcache.demand_miss_latency::cpu0.data    552223218                       # number of demand (read+write) miss cycles
system.cpu0.dcache.demand_miss_latency::total    552223218                       # number of demand (read+write) miss cycles
system.cpu0.dcache.overall_miss_latency::cpu0.data    552223218                       # number of overall miss cycles
system.cpu0.dcache.overall_miss_latency::total    552223218                       # number of overall miss cycles
system.cpu0.dcache.ReadReq_accesses::cpu0.data      3533868                       # number of ReadReq accesses(hits+misses)
system.cpu0.dcache.ReadReq_accesses::total      3533868                       # number of ReadReq accesses(hits+misses)
system.cpu0.dcache.WriteReq_accesses::cpu0.data      1399382                       # number of WriteReq accesses(hits+misses)
system.cpu0.dcache.WriteReq_accesses::total      1399382                       # number of WriteReq accesses(hits+misses)
system.cpu0.dcache.SoftPFReq_accesses::cpu0.data         2228                       # number of SoftPFReq accesses(hits+misses)
system.cpu0.dcache.SoftPFReq_accesses::total         2228                       # number of SoftPFReq accesses(hits+misses)
system.cpu0.dcache.demand_accesses::cpu0.data      4933250                       # number of demand (read+write) accesses
system.cpu0.dcache.demand_accesses::total      4933250                       # number of demand (read+write) accesses
system.cpu0.dcache.overall_accesses::cpu0.data      4935478                       # number of overall (read+write) accesses
system.cpu0.dcache.overall_accesses::total      4935478                       # number of overall (read+write) accesses
system.cpu0.dcache.ReadReq_miss_rate::cpu0.data     0.005993                       # miss rate for ReadReq accesses
system.cpu0.dcache.ReadReq_miss_rate::total     0.005993                       # miss rate for ReadReq accesses
system.cpu0.dcache.WriteReq_miss_rate::cpu0.data     0.021237                       # miss rate for WriteReq accesses
system.cpu0.dcache.WriteReq_miss_rate::total     0.021237                       # miss rate for WriteReq accesses
system.cpu0.dcache.SoftPFReq_miss_rate::cpu0.data     0.998205                       # miss rate for SoftPFReq accesses
system.cpu0.dcache.SoftPFReq_miss_rate::total     0.998205                       # miss rate for SoftPFReq accesses
system.cpu0.dcache.demand_miss_rate::cpu0.data     0.010317                       # miss rate for demand accesses
system.cpu0.dcache.demand_miss_rate::total     0.010317                       # miss rate for demand accesses
system.cpu0.dcache.overall_miss_rate::cpu0.data     0.010763                       # miss rate for overall accesses
system.cpu0.dcache.overall_miss_rate::total     0.010763                       # miss rate for overall accesses
system.cpu0.dcache.ReadReq_avg_miss_latency::cpu0.data 10226.246494                       # average ReadReq miss latency
system.cpu0.dcache.ReadReq_avg_miss_latency::total 10226.246494                       # average ReadReq miss latency
system.cpu0.dcache.WriteReq_avg_miss_latency::cpu0.data 11294.905310                       # average WriteReq miss latency
system.cpu0.dcache.WriteReq_avg_miss_latency::total 11294.905310                       # average WriteReq miss latency
system.cpu0.dcache.demand_avg_miss_latency::cpu0.data 10850.244975                       # average overall miss latency
system.cpu0.dcache.demand_avg_miss_latency::total 10850.244975                       # average overall miss latency
system.cpu0.dcache.overall_avg_miss_latency::cpu0.data 10395.964118                       # average overall miss latency
system.cpu0.dcache.overall_avg_miss_latency::total 10395.964118                       # average overall miss latency
system.cpu0.dcache.blocked_cycles::no_mshrs        21646                       # number of cycles access was blocked
system.cpu0.dcache.blocked_cycles::no_targets           15                       # number of cycles access was blocked
system.cpu0.dcache.blocked::no_mshrs              951                       # number of cycles access was blocked
system.cpu0.dcache.blocked::no_targets              1                       # number of cycles access was blocked
system.cpu0.dcache.avg_blocked_cycles::no_mshrs    22.761304                       # average number of cycles each access was blocked
system.cpu0.dcache.avg_blocked_cycles::no_targets           15                       # average number of cycles each access was blocked
system.cpu0.dcache.writebacks::writebacks        41131                       # number of writebacks
system.cpu0.dcache.writebacks::total            41131                       # number of writebacks
system.cpu0.dcache.ReadReq_mshr_hits::cpu0.data        10211                       # number of ReadReq MSHR hits
system.cpu0.dcache.ReadReq_mshr_hits::total        10211                       # number of ReadReq MSHR hits
system.cpu0.dcache.WriteReq_mshr_hits::cpu0.data            1                       # number of WriteReq MSHR hits
system.cpu0.dcache.WriteReq_mshr_hits::total            1                       # number of WriteReq MSHR hits
system.cpu0.dcache.demand_mshr_hits::cpu0.data        10212                       # number of demand (read+write) MSHR hits
system.cpu0.dcache.demand_mshr_hits::total        10212                       # number of demand (read+write) MSHR hits
system.cpu0.dcache.overall_mshr_hits::cpu0.data        10212                       # number of overall MSHR hits
system.cpu0.dcache.overall_mshr_hits::total        10212                       # number of overall MSHR hits
system.cpu0.dcache.ReadReq_mshr_misses::cpu0.data        10966                       # number of ReadReq MSHR misses
system.cpu0.dcache.ReadReq_mshr_misses::total        10966                       # number of ReadReq MSHR misses
system.cpu0.dcache.WriteReq_mshr_misses::cpu0.data        29717                       # number of WriteReq MSHR misses
system.cpu0.dcache.WriteReq_mshr_misses::total        29717                       # number of WriteReq MSHR misses
system.cpu0.dcache.SoftPFReq_mshr_misses::cpu0.data         2224                       # number of SoftPFReq MSHR misses
system.cpu0.dcache.SoftPFReq_mshr_misses::total         2224                       # number of SoftPFReq MSHR misses
system.cpu0.dcache.demand_mshr_misses::cpu0.data        40683                       # number of demand (read+write) MSHR misses
system.cpu0.dcache.demand_mshr_misses::total        40683                       # number of demand (read+write) MSHR misses
system.cpu0.dcache.overall_mshr_misses::cpu0.data        42907                       # number of overall MSHR misses
system.cpu0.dcache.overall_mshr_misses::total        42907                       # number of overall MSHR misses
system.cpu0.dcache.ReadReq_mshr_miss_latency::cpu0.data     94654251                       # number of ReadReq MSHR miss cycles
system.cpu0.dcache.ReadReq_mshr_miss_latency::total     94654251                       # number of ReadReq MSHR miss cycles
system.cpu0.dcache.WriteReq_mshr_miss_latency::cpu0.data    315834843                       # number of WriteReq MSHR miss cycles
system.cpu0.dcache.WriteReq_mshr_miss_latency::total    315834843                       # number of WriteReq MSHR miss cycles
system.cpu0.dcache.SoftPFReq_mshr_miss_latency::cpu0.data     39834459                       # number of SoftPFReq MSHR miss cycles
system.cpu0.dcache.SoftPFReq_mshr_miss_latency::total     39834459                       # number of SoftPFReq MSHR miss cycles
system.cpu0.dcache.demand_mshr_miss_latency::cpu0.data    410489094                       # number of demand (read+write) MSHR miss cycles
system.cpu0.dcache.demand_mshr_miss_latency::total    410489094                       # number of demand (read+write) MSHR miss cycles
system.cpu0.dcache.overall_mshr_miss_latency::cpu0.data    450323553                       # number of overall MSHR miss cycles
system.cpu0.dcache.overall_mshr_miss_latency::total    450323553                       # number of overall MSHR miss cycles
system.cpu0.dcache.ReadReq_mshr_miss_rate::cpu0.data     0.003103                       # mshr miss rate for ReadReq accesses
system.cpu0.dcache.ReadReq_mshr_miss_rate::total     0.003103                       # mshr miss rate for ReadReq accesses
system.cpu0.dcache.WriteReq_mshr_miss_rate::cpu0.data     0.021236                       # mshr miss rate for WriteReq accesses
system.cpu0.dcache.WriteReq_mshr_miss_rate::total     0.021236                       # mshr miss rate for WriteReq accesses
system.cpu0.dcache.SoftPFReq_mshr_miss_rate::cpu0.data     0.998205                       # mshr miss rate for SoftPFReq accesses
system.cpu0.dcache.SoftPFReq_mshr_miss_rate::total     0.998205                       # mshr miss rate for SoftPFReq accesses
system.cpu0.dcache.demand_mshr_miss_rate::cpu0.data     0.008247                       # mshr miss rate for demand accesses
system.cpu0.dcache.demand_mshr_miss_rate::total     0.008247                       # mshr miss rate for demand accesses
system.cpu0.dcache.overall_mshr_miss_rate::cpu0.data     0.008694                       # mshr miss rate for overall accesses
system.cpu0.dcache.overall_mshr_miss_rate::total     0.008694                       # mshr miss rate for overall accesses
system.cpu0.dcache.ReadReq_avg_mshr_miss_latency::cpu0.data  8631.611435                       # average ReadReq mshr miss latency
system.cpu0.dcache.ReadReq_avg_mshr_miss_latency::total  8631.611435                       # average ReadReq mshr miss latency
system.cpu0.dcache.WriteReq_avg_mshr_miss_latency::cpu0.data 10628.086382                       # average WriteReq mshr miss latency
system.cpu0.dcache.WriteReq_avg_mshr_miss_latency::total 10628.086382                       # average WriteReq mshr miss latency
system.cpu0.dcache.SoftPFReq_avg_mshr_miss_latency::cpu0.data 17911.177608                       # average SoftPFReq mshr miss latency
system.cpu0.dcache.SoftPFReq_avg_mshr_miss_latency::total 17911.177608                       # average SoftPFReq mshr miss latency
system.cpu0.dcache.demand_avg_mshr_miss_latency::cpu0.data 10089.941597                       # average overall mshr miss latency
system.cpu0.dcache.demand_avg_mshr_miss_latency::total 10089.941597                       # average overall mshr miss latency
system.cpu0.dcache.overall_avg_mshr_miss_latency::cpu0.data 10495.339991                       # average overall mshr miss latency
system.cpu0.dcache.overall_avg_mshr_miss_latency::total 10495.339991                       # average overall mshr miss latency
system.cpu0.dtb_walker_cache.tags.pwrStateResidencyTicks::UNDEFINED   2133007857                       # Cumulative time (in ticks) in various power states
system.cpu0.dtb_walker_cache.tags.replacements            0                       # number of replacements
system.cpu0.dtb_walker_cache.tags.tagsinuse            0                       # Cycle average of tags in use
system.cpu0.dtb_walker_cache.tags.total_refs            0                       # Total number of references to valid blocks.
system.cpu0.dtb_walker_cache.tags.sampled_refs            0                       # Sample count of references to valid blocks.
system.cpu0.dtb_walker_cache.tags.avg_refs          nan                       # Average number of references to valid blocks.
system.cpu0.dtb_walker_cache.tags.warmup_cycle            0                       # Cycle when the warmup percentage was hit.
system.cpu0.dtb_walker_cache.tags.tag_accesses            0                       # Number of tag accesses
system.cpu0.dtb_walker_cache.tags.data_accesses            0                       # Number of data accesses
system.cpu0.dtb_walker_cache.pwrStateResidencyTicks::UNDEFINED   2133007857                       # Cumulative time (in ticks) in various power states
system.cpu0.dtb_walker_cache.blocked_cycles::no_mshrs            0                       # number of cycles access was blocked
system.cpu0.dtb_walker_cache.blocked_cycles::no_targets            0                       # number of cycles access was blocked
system.cpu0.dtb_walker_cache.blocked::no_mshrs            0                       # number of cycles access was blocked
system.cpu0.dtb_walker_cache.blocked::no_targets            0                       # number of cycles access was blocked
system.cpu0.dtb_walker_cache.avg_blocked_cycles::no_mshrs          nan                       # average number of cycles each access was blocked
system.cpu0.dtb_walker_cache.avg_blocked_cycles::no_targets          nan                       # average number of cycles each access was blocked
system.cpu0.icache.tags.pwrStateResidencyTicks::UNDEFINED   2133007857                       # Cumulative time (in ticks) in various power states
system.cpu0.icache.tags.replacements             1403                       # number of replacements
system.cpu0.icache.tags.tagsinuse          508.105015                       # Cycle average of tags in use
system.cpu0.icache.tags.total_refs            1005989                       # Total number of references to valid blocks.
system.cpu0.icache.tags.sampled_refs             1915                       # Sample count of references to valid blocks.
system.cpu0.icache.tags.avg_refs           525.320627                       # Average number of references to valid blocks.
system.cpu0.icache.tags.warmup_cycle            81252                       # Cycle when the warmup percentage was hit.
system.cpu0.icache.tags.occ_blocks::cpu0.inst   508.105015                       # Average occupied blocks per requestor
system.cpu0.icache.tags.occ_percent::cpu0.inst     0.992393                       # Average percentage of cache occupancy
system.cpu0.icache.tags.occ_percent::total     0.992393                       # Average percentage of cache occupancy
system.cpu0.icache.tags.occ_task_id_blocks::1024          512                       # Occupied blocks per task id
system.cpu0.icache.tags.age_task_id_blocks_1024::2            4                       # Occupied blocks per task id
system.cpu0.icache.tags.age_task_id_blocks_1024::3          508                       # Occupied blocks per task id
system.cpu0.icache.tags.occ_task_id_percent::1024            1                       # Percentage of cache occupancy per task id
system.cpu0.icache.tags.tag_accesses          8069525                       # Number of tag accesses
system.cpu0.icache.tags.data_accesses         8069525                       # Number of data accesses
system.cpu0.icache.pwrStateResidencyTicks::UNDEFINED   2133007857                       # Cumulative time (in ticks) in various power states
system.cpu0.icache.ReadReq_hits::cpu0.inst      1005989                       # number of ReadReq hits
system.cpu0.icache.ReadReq_hits::total        1005989                       # number of ReadReq hits
system.cpu0.icache.demand_hits::cpu0.inst      1005989                       # number of demand (read+write) hits
system.cpu0.icache.demand_hits::total         1005989                       # number of demand (read+write) hits
system.cpu0.icache.overall_hits::cpu0.inst      1005989                       # number of overall hits
system.cpu0.icache.overall_hits::total        1005989                       # number of overall hits
system.cpu0.icache.ReadReq_misses::cpu0.inst         2462                       # number of ReadReq misses
system.cpu0.icache.ReadReq_misses::total         2462                       # number of ReadReq misses
system.cpu0.icache.demand_misses::cpu0.inst         2462                       # number of demand (read+write) misses
system.cpu0.icache.demand_misses::total          2462                       # number of demand (read+write) misses
system.cpu0.icache.overall_misses::cpu0.inst         2462                       # number of overall misses
system.cpu0.icache.overall_misses::total         2462                       # number of overall misses
system.cpu0.icache.ReadReq_miss_latency::cpu0.inst    138728128                       # number of ReadReq miss cycles
system.cpu0.icache.ReadReq_miss_latency::total    138728128                       # number of ReadReq miss cycles
system.cpu0.icache.demand_miss_latency::cpu0.inst    138728128                       # number of demand (read+write) miss cycles
system.cpu0.icache.demand_miss_latency::total    138728128                       # number of demand (read+write) miss cycles
system.cpu0.icache.overall_miss_latency::cpu0.inst    138728128                       # number of overall miss cycles
system.cpu0.icache.overall_miss_latency::total    138728128                       # number of overall miss cycles
system.cpu0.icache.ReadReq_accesses::cpu0.inst      1008451                       # number of ReadReq accesses(hits+misses)
system.cpu0.icache.ReadReq_accesses::total      1008451                       # number of ReadReq accesses(hits+misses)
system.cpu0.icache.demand_accesses::cpu0.inst      1008451                       # number of demand (read+write) accesses
system.cpu0.icache.demand_accesses::total      1008451                       # number of demand (read+write) accesses
system.cpu0.icache.overall_accesses::cpu0.inst      1008451                       # number of overall (read+write) accesses
system.cpu0.icache.overall_accesses::total      1008451                       # number of overall (read+write) accesses
system.cpu0.icache.ReadReq_miss_rate::cpu0.inst     0.002441                       # miss rate for ReadReq accesses
system.cpu0.icache.ReadReq_miss_rate::total     0.002441                       # miss rate for ReadReq accesses
system.cpu0.icache.demand_miss_rate::cpu0.inst     0.002441                       # miss rate for demand accesses
system.cpu0.icache.demand_miss_rate::total     0.002441                       # miss rate for demand accesses
system.cpu0.icache.overall_miss_rate::cpu0.inst     0.002441                       # miss rate for overall accesses
system.cpu0.icache.overall_miss_rate::total     0.002441                       # miss rate for overall accesses
system.cpu0.icache.ReadReq_avg_miss_latency::cpu0.inst 56347.736799                       # average ReadReq miss latency
system.cpu0.icache.ReadReq_avg_miss_latency::total 56347.736799                       # average ReadReq miss latency
system.cpu0.icache.demand_avg_miss_latency::cpu0.inst 56347.736799                       # average overall miss latency
system.cpu0.icache.demand_avg_miss_latency::total 56347.736799                       # average overall miss latency
system.cpu0.icache.overall_avg_miss_latency::cpu0.inst 56347.736799                       # average overall miss latency
system.cpu0.icache.overall_avg_miss_latency::total 56347.736799                       # average overall miss latency
system.cpu0.icache.blocked_cycles::no_mshrs         1770                       # number of cycles access was blocked
system.cpu0.icache.blocked_cycles::no_targets            0                       # number of cycles access was blocked
system.cpu0.icache.blocked::no_mshrs               31                       # number of cycles access was blocked
system.cpu0.icache.blocked::no_targets              0                       # number of cycles access was blocked
system.cpu0.icache.avg_blocked_cycles::no_mshrs    57.096774                       # average number of cycles each access was blocked
system.cpu0.icache.avg_blocked_cycles::no_targets          nan                       # average number of cycles each access was blocked
system.cpu0.icache.writebacks::writebacks         1403                       # number of writebacks
system.cpu0.icache.writebacks::total             1403                       # number of writebacks
system.cpu0.icache.ReadReq_mshr_hits::cpu0.inst          545                       # number of ReadReq MSHR hits
system.cpu0.icache.ReadReq_mshr_hits::total          545                       # number of ReadReq MSHR hits
system.cpu0.icache.demand_mshr_hits::cpu0.inst          545                       # number of demand (read+write) MSHR hits
system.cpu0.icache.demand_mshr_hits::total          545                       # number of demand (read+write) MSHR hits
system.cpu0.icache.overall_mshr_hits::cpu0.inst          545                       # number of overall MSHR hits
system.cpu0.icache.overall_mshr_hits::total          545                       # number of overall MSHR hits
system.cpu0.icache.ReadReq_mshr_misses::cpu0.inst         1917                       # number of ReadReq MSHR misses
system.cpu0.icache.ReadReq_mshr_misses::total         1917                       # number of ReadReq MSHR misses
system.cpu0.icache.demand_mshr_misses::cpu0.inst         1917                       # number of demand (read+write) MSHR misses
system.cpu0.icache.demand_mshr_misses::total         1917                       # number of demand (read+write) MSHR misses
system.cpu0.icache.overall_mshr_misses::cpu0.inst         1917                       # number of overall MSHR misses
system.cpu0.icache.overall_mshr_misses::total         1917                       # number of overall MSHR misses
system.cpu0.icache.ReadReq_mshr_miss_latency::cpu0.inst    109426126                       # number of ReadReq MSHR miss cycles
system.cpu0.icache.ReadReq_mshr_miss_latency::total    109426126                       # number of ReadReq MSHR miss cycles
system.cpu0.icache.demand_mshr_miss_latency::cpu0.inst    109426126                       # number of demand (read+write) MSHR miss cycles
system.cpu0.icache.demand_mshr_miss_latency::total    109426126                       # number of demand (read+write) MSHR miss cycles
system.cpu0.icache.overall_mshr_miss_latency::cpu0.inst    109426126                       # number of overall MSHR miss cycles
system.cpu0.icache.overall_mshr_miss_latency::total    109426126                       # number of overall MSHR miss cycles
system.cpu0.icache.ReadReq_mshr_miss_rate::cpu0.inst     0.001901                       # mshr miss rate for ReadReq accesses
system.cpu0.icache.ReadReq_mshr_miss_rate::total     0.001901                       # mshr miss rate for ReadReq accesses
system.cpu0.icache.demand_mshr_miss_rate::cpu0.inst     0.001901                       # mshr miss rate for demand accesses
system.cpu0.icache.demand_mshr_miss_rate::total     0.001901                       # mshr miss rate for demand accesses
system.cpu0.icache.overall_mshr_miss_rate::cpu0.inst     0.001901                       # mshr miss rate for overall accesses
system.cpu0.icache.overall_mshr_miss_rate::total     0.001901                       # mshr miss rate for overall accesses
system.cpu0.icache.ReadReq_avg_mshr_miss_latency::cpu0.inst 57081.964528                       # average ReadReq mshr miss latency
system.cpu0.icache.ReadReq_avg_mshr_miss_latency::total 57081.964528                       # average ReadReq mshr miss latency
system.cpu0.icache.demand_avg_mshr_miss_latency::cpu0.inst 57081.964528                       # average overall mshr miss latency
system.cpu0.icache.demand_avg_mshr_miss_latency::total 57081.964528                       # average overall mshr miss latency
system.cpu0.icache.overall_avg_mshr_miss_latency::cpu0.inst 57081.964528                       # average overall mshr miss latency
system.cpu0.icache.overall_avg_mshr_miss_latency::total 57081.964528                       # average overall mshr miss latency
system.cpu0.itb_walker_cache.tags.pwrStateResidencyTicks::UNDEFINED   2133007857                       # Cumulative time (in ticks) in various power states
system.cpu0.itb_walker_cache.tags.replacements            0                       # number of replacements
system.cpu0.itb_walker_cache.tags.tagsinuse            0                       # Cycle average of tags in use
system.cpu0.itb_walker_cache.tags.total_refs            0                       # Total number of references to valid blocks.
system.cpu0.itb_walker_cache.tags.sampled_refs            0                       # Sample count of references to valid blocks.
system.cpu0.itb_walker_cache.tags.avg_refs          nan                       # Average number of references to valid blocks.
system.cpu0.itb_walker_cache.tags.warmup_cycle            0                       # Cycle when the warmup percentage was hit.
system.cpu0.itb_walker_cache.tags.tag_accesses            0                       # Number of tag accesses
system.cpu0.itb_walker_cache.tags.data_accesses            0                       # Number of data accesses
system.cpu0.itb_walker_cache.pwrStateResidencyTicks::UNDEFINED   2133007857                       # Cumulative time (in ticks) in various power states
system.cpu0.itb_walker_cache.blocked_cycles::no_mshrs            0                       # number of cycles access was blocked
system.cpu0.itb_walker_cache.blocked_cycles::no_targets            0                       # number of cycles access was blocked
system.cpu0.itb_walker_cache.blocked::no_mshrs            0                       # number of cycles access was blocked
system.cpu0.itb_walker_cache.blocked::no_targets            0                       # number of cycles access was blocked
system.cpu0.itb_walker_cache.avg_blocked_cycles::no_mshrs          nan                       # average number of cycles each access was blocked
system.cpu0.itb_walker_cache.avg_blocked_cycles::no_targets          nan                       # average number of cycles each access was blocked
system.cpu0.l2cache.tags.pwrStateResidencyTicks::UNDEFINED   2133007857                       # Cumulative time (in ticks) in various power states
system.cpu0.l2cache.tags.replacements            2533                       # number of replacements
system.cpu0.l2cache.tags.tagsinuse        3698.882599                       # Cycle average of tags in use
system.cpu0.l2cache.tags.total_refs             81956                       # Total number of references to valid blocks.
system.cpu0.l2cache.tags.sampled_refs            6622                       # Sample count of references to valid blocks.
system.cpu0.l2cache.tags.avg_refs           12.376321                       # Average number of references to valid blocks.
system.cpu0.l2cache.tags.warmup_cycle           78000                       # Cycle when the warmup percentage was hit.
system.cpu0.l2cache.tags.occ_blocks::writebacks    33.254318                       # Average occupied blocks per requestor
system.cpu0.l2cache.tags.occ_blocks::cpu0.inst   470.459334                       # Average occupied blocks per requestor
system.cpu0.l2cache.tags.occ_blocks::cpu0.data  3195.168948                       # Average occupied blocks per requestor
system.cpu0.l2cache.tags.occ_percent::writebacks     0.008119                       # Average percentage of cache occupancy
system.cpu0.l2cache.tags.occ_percent::cpu0.inst     0.114858                       # Average percentage of cache occupancy
system.cpu0.l2cache.tags.occ_percent::cpu0.data     0.780071                       # Average percentage of cache occupancy
system.cpu0.l2cache.tags.occ_percent::total     0.903048                       # Average percentage of cache occupancy
system.cpu0.l2cache.tags.occ_task_id_blocks::1024         4089                       # Occupied blocks per task id
system.cpu0.l2cache.tags.age_task_id_blocks_1024::2           17                       # Occupied blocks per task id
system.cpu0.l2cache.tags.age_task_id_blocks_1024::3         4072                       # Occupied blocks per task id
system.cpu0.l2cache.tags.occ_task_id_percent::1024     0.998291                       # Percentage of cache occupancy per task id
system.cpu0.l2cache.tags.tag_accesses          360962                       # Number of tag accesses
system.cpu0.l2cache.tags.data_accesses         360962                       # Number of data accesses
system.cpu0.l2cache.pwrStateResidencyTicks::UNDEFINED   2133007857                       # Cumulative time (in ticks) in various power states
system.cpu0.l2cache.WritebackDirty_hits::writebacks        41131                       # number of WritebackDirty hits
system.cpu0.l2cache.WritebackDirty_hits::total        41131                       # number of WritebackDirty hits
system.cpu0.l2cache.WritebackClean_hits::writebacks         1399                       # number of WritebackClean hits
system.cpu0.l2cache.WritebackClean_hits::total         1399                       # number of WritebackClean hits
[...]
system.l3.demand_mshr_miss_latency::cpu0.data    220925528                       # number of demand (read+write) MSHR miss cycles
system.l3.demand_mshr_miss_latency::cpu1.inst     82873963                       # number of demand (read+write) MSHR miss cycles
system.l3.demand_mshr_miss_latency::cpu1.data    222623327                       # number of demand (read+write) MSHR miss cycles
system.l3.demand_mshr_miss_latency::cpu2.inst     85764351                       # number of demand (read+write) MSHR miss cycles
system.l3.demand_mshr_miss_latency::cpu2.data    222203023                       # number of demand (read+write) MSHR miss cycles
system.l3.demand_mshr_miss_latency::cpu3.inst     86110213                       # number of demand (read+write) MSHR miss cycles
system.l3.demand_mshr_miss_latency::cpu3.data    221205016                       # number of demand (read+write) MSHR miss cycles
system.l3.demand_mshr_miss_latency::total   1225347143                       # number of demand (read+write) MSHR miss cycles
system.l3.overall_mshr_miss_latency::cpu0.inst     83641722                       # number of overall MSHR miss cycles
system.l3.overall_mshr_miss_latency::cpu0.data    220925528                       # number of overall MSHR miss cycles
system.l3.overall_mshr_miss_latency::cpu1.inst     82873963                       # number of overall MSHR miss cycles
system.l3.overall_mshr_miss_latency::cpu1.data    222623327                       # number of overall MSHR miss cycles
system.l3.overall_mshr_miss_latency::cpu2.inst     85764351                       # number of overall MSHR miss cycles
system.l3.overall_mshr_miss_latency::cpu2.data    222203023                       # number of overall MSHR miss cycles
system.l3.overall_mshr_miss_latency::cpu3.inst     86110213                       # number of overall MSHR miss cycles
system.l3.overall_mshr_miss_latency::cpu3.data    221205016                       # number of overall MSHR miss cycles
system.l3.overall_mshr_miss_latency::total   1225347143                       # number of overall MSHR miss cycles
system.l3.ReadExReq_mshr_miss_rate::cpu0.data     0.983616                       # mshr miss rate for ReadExReq accesses
system.l3.ReadExReq_mshr_miss_rate::cpu1.data     0.964513                       # mshr miss rate for ReadExReq accesses
system.l3.ReadExReq_mshr_miss_rate::cpu2.data     0.976966                       # mshr miss rate for ReadExReq accesses
system.l3.ReadExReq_mshr_miss_rate::cpu3.data     0.969916                       # mshr miss rate for ReadExReq accesses
system.l3.ReadExReq_mshr_miss_rate::total     0.973701                       # mshr miss rate for ReadExReq accesses
system.l3.ReadSharedReq_mshr_miss_rate::cpu0.inst     0.981258                       # mshr miss rate for ReadSharedReq accesses
system.l3.ReadSharedReq_mshr_miss_rate::cpu0.data     0.916852                       # mshr miss rate for ReadSharedReq accesses
system.l3.ReadSharedReq_mshr_miss_rate::cpu1.inst     0.984912                       # mshr miss rate for ReadSharedReq accesses
system.l3.ReadSharedReq_mshr_miss_rate::cpu1.data     0.889365                       # mshr miss rate for ReadSharedReq accesses
system.l3.ReadSharedReq_mshr_miss_rate::cpu2.inst     0.988533                       # mshr miss rate for ReadSharedReq accesses
system.l3.ReadSharedReq_mshr_miss_rate::cpu2.data     0.936984                       # mshr miss rate for ReadSharedReq accesses
system.l3.ReadSharedReq_mshr_miss_rate::cpu3.inst     0.989098                       # mshr miss rate for ReadSharedReq accesses
system.l3.ReadSharedReq_mshr_miss_rate::cpu3.data     0.931086                       # mshr miss rate for ReadSharedReq accesses
system.l3.ReadSharedReq_mshr_miss_rate::total     0.955463                       # mshr miss rate for ReadSharedReq accesses
system.l3.demand_mshr_miss_rate::cpu0.inst     0.981258                       # mshr miss rate for demand accesses
system.l3.demand_mshr_miss_rate::cpu0.data     0.965214                       # mshr miss rate for demand accesses
system.l3.demand_mshr_miss_rate::cpu1.inst     0.984912                       # mshr miss rate for demand accesses
system.l3.demand_mshr_miss_rate::cpu1.data     0.943490                       # mshr miss rate for demand accesses
system.l3.demand_mshr_miss_rate::cpu2.inst     0.988533                       # mshr miss rate for demand accesses
system.l3.demand_mshr_miss_rate::cpu2.data     0.966074                       # mshr miss rate for demand accesses
system.l3.demand_mshr_miss_rate::cpu3.inst     0.989098                       # mshr miss rate for demand accesses
system.l3.demand_mshr_miss_rate::cpu3.data     0.959391                       # mshr miss rate for demand accesses
system.l3.demand_mshr_miss_rate::total       0.965365                       # mshr miss rate for demand accesses
system.l3.overall_mshr_miss_rate::cpu0.inst     0.981258                       # mshr miss rate for overall accesses
system.l3.overall_mshr_miss_rate::cpu0.data     0.965214                       # mshr miss rate for overall accesses
system.l3.overall_mshr_miss_rate::cpu1.inst     0.984912                       # mshr miss rate for overall accesses
system.l3.overall_mshr_miss_rate::cpu1.data     0.943490                       # mshr miss rate for overall accesses
system.l3.overall_mshr_miss_rate::cpu2.inst     0.988533                       # mshr miss rate for overall accesses
system.l3.overall_mshr_miss_rate::cpu2.data     0.966074                       # mshr miss rate for overall accesses
system.l3.overall_mshr_miss_rate::cpu3.inst     0.989098                       # mshr miss rate for overall accesses
system.l3.overall_mshr_miss_rate::cpu3.data     0.959391                       # mshr miss rate for overall accesses
system.l3.overall_mshr_miss_rate::total      0.965365                       # mshr miss rate for overall accesses
system.l3.ReadExReq_avg_mshr_miss_latency::cpu0.data 45227.635554                       # average ReadExReq mshr miss latency
system.l3.ReadExReq_avg_mshr_miss_latency::cpu1.data 45559.737568                       # average ReadExReq mshr miss latency
system.l3.ReadExReq_avg_mshr_miss_latency::cpu2.data 45418.200115                       # average ReadExReq mshr miss latency
system.l3.ReadExReq_avg_mshr_miss_latency::cpu3.data 45443.681792                       # average ReadExReq mshr miss latency
system.l3.ReadExReq_avg_mshr_miss_latency::total 45412.280296                       # average ReadExReq mshr miss latency
system.l3.ReadSharedReq_avg_mshr_miss_latency::cpu0.inst 51535.256932                       # average ReadSharedReq mshr miss latency
system.l3.ReadSharedReq_avg_mshr_miss_latency::cpu0.data 51370.770040                       # average ReadSharedReq mshr miss latency
system.l3.ReadSharedReq_avg_mshr_miss_latency::cpu1.inst 50780.614583                       # average ReadSharedReq mshr miss latency
system.l3.ReadSharedReq_avg_mshr_miss_latency::cpu1.data 51461.476726                       # average ReadSharedReq mshr miss latency
system.l3.ReadSharedReq_avg_mshr_miss_latency::cpu2.inst 52359.188645                       # average ReadSharedReq mshr miss latency
system.l3.ReadSharedReq_avg_mshr_miss_latency::cpu2.data 51431.963971                       # average ReadSharedReq mshr miss latency
system.l3.ReadSharedReq_avg_mshr_miss_latency::cpu3.inst 52731.300061                       # average ReadSharedReq mshr miss latency
system.l3.ReadSharedReq_avg_mshr_miss_latency::cpu3.data 50659.787611                       # average ReadSharedReq mshr miss latency
system.l3.ReadSharedReq_avg_mshr_miss_latency::total 51583.858509                       # average ReadSharedReq mshr miss latency
system.l3.demand_avg_mshr_miss_latency::cpu0.inst 51535.256932                       # average overall mshr miss latency
system.l3.demand_avg_mshr_miss_latency::cpu0.data 46836.024592                       # average overall mshr miss latency
system.l3.demand_avg_mshr_miss_latency::cpu1.inst 50780.614583                       # average overall mshr miss latency
system.l3.demand_avg_mshr_miss_latency::cpu1.data 47116.048042                       # average overall mshr miss latency
system.l3.demand_avg_mshr_miss_latency::cpu2.inst 52359.188645                       # average overall mshr miss latency
system.l3.demand_avg_mshr_miss_latency::cpu2.data 47007.197588                       # average overall mshr miss latency
system.l3.demand_avg_mshr_miss_latency::cpu3.inst 52731.300061                       # average overall mshr miss latency
system.l3.demand_avg_mshr_miss_latency::cpu3.data 46815.876402                       # average overall mshr miss latency
system.l3.demand_avg_mshr_miss_latency::total 48204.057553                       # average overall mshr miss latency
system.l3.overall_avg_mshr_miss_latency::cpu0.inst 51535.256932                       # average overall mshr miss latency
system.l3.overall_avg_mshr_miss_latency::cpu0.data 46836.024592                       # average overall mshr miss latency
system.l3.overall_avg_mshr_miss_latency::cpu1.inst 50780.614583                       # average overall mshr miss latency
system.l3.overall_avg_mshr_miss_latency::cpu1.data 47116.048042                       # average overall mshr miss latency
system.l3.overall_avg_mshr_miss_latency::cpu2.inst 52359.188645                       # average overall mshr miss latency
system.l3.overall_avg_mshr_miss_latency::cpu2.data 47007.197588                       # average overall mshr miss latency
system.l3.overall_avg_mshr_miss_latency::cpu3.inst 52731.300061                       # average overall mshr miss latency
system.l3.overall_avg_mshr_miss_latency::cpu3.data 46815.876402                       # average overall mshr miss latency
system.l3.overall_avg_mshr_miss_latency::total 48204.057553                       # average overall mshr miss latency
system.membus.snoop_filter.tot_requests         25420                       # Total number of requests made to the snoop filter.
system.membus.snoop_filter.hit_single_requests            0                       # Number of requests hitting in the snoop filter with a single holder of the requested data.
system.membus.snoop_filter.hit_multi_requests            0                       # Number of requests hitting in the snoop filter with multiple (>1) holders of the requested data.
system.membus.snoop_filter.tot_snoops               0                       # Total number of snoops made to the snoop filter.
system.membus.snoop_filter.hit_single_snoops            0                       # Number of snoops hitting in the snoop filter with a single holder of the requested data.
system.membus.snoop_filter.hit_multi_snoops            0                       # Number of snoops hitting in the snoop filter with multiple (>1) holders of the requested data.
system.membus.pwrStateResidencyTicks::UNDEFINED   2133007857                       # Cumulative time (in ticks) in various power states
system.membus.trans_dist::ReadResp              11499                       # Transaction distribution
system.membus.trans_dist::ReadExReq             13921                       # Transaction distribution
system.membus.trans_dist::ReadExResp            13921                       # Transaction distribution
system.membus.trans_dist::ReadSharedReq         11499                       # Transaction distribution
system.membus.pkt_count_system.l3.mem_side::system.mem_ctrls.port        50840                       # Packet count per connected master and slave (bytes)
system.membus.pkt_count_system.l3.mem_side::total        50840                       # Packet count per connected master and slave (bytes)
system.membus.pkt_count::total                  50840                       # Packet count per connected master and slave (bytes)
system.membus.pkt_size_system.l3.mem_side::system.mem_ctrls.port      1626880                       # Cumulative packet size per connected master and slave (bytes)
system.membus.pkt_size_system.l3.mem_side::total      1626880                       # Cumulative packet size per connected master and slave (bytes)
system.membus.pkt_size::total                 1626880                       # Cumulative packet size per connected master and slave (bytes)
system.membus.snoops                                0                       # Total snoops (count)
system.membus.snoopTraffic                          0                       # Total snoop traffic (bytes)
system.membus.snoop_fanout::samples             25420                       # Request fanout histogram
system.membus.snoop_fanout::mean                    0                       # Request fanout histogram
system.membus.snoop_fanout::stdev                   0                       # Request fanout histogram
system.membus.snoop_fanout::underflows              0      0.00%      0.00% # Request fanout histogram
system.membus.snoop_fanout::0                   25420    100.00%    100.00% # Request fanout histogram
system.membus.snoop_fanout::1                       0      0.00%    100.00% # Request fanout histogram
system.membus.snoop_fanout::overflows               0      0.00%    100.00% # Request fanout histogram
system.membus.snoop_fanout::min_value               0                       # Request fanout histogram
system.membus.snoop_fanout::max_value               0                       # Request fanout histogram
system.membus.snoop_fanout::total               25420                       # Request fanout histogram
system.membus.reqLayer8.occupancy            32914541                       # Layer occupancy (ticks)
system.membus.reqLayer8.utilization               1.5                       # Layer utilization (%)
system.membus.respLayer1.occupancy          136029769                       # Layer occupancy (ticks)
system.membus.respLayer1.utilization              6.4                       # Layer utilization (%)
system.tol3bus.snoop_filter.tot_requests        34535                       # Total number of requests made to the snoop filter.
system.tol3bus.snoop_filter.hit_single_requests         8206                       # Number of requests hitting in the snoop filter with a single holder of the requested data.
system.tol3bus.snoop_filter.hit_multi_requests            0                       # Number of requests hitting in the snoop filter with multiple (>1) holders of the requested data.
system.tol3bus.snoop_filter.tot_snoops              0                       # Total number of snoops made to the snoop filter.
system.tol3bus.snoop_filter.hit_single_snoops            0                       # Number of snoops hitting in the snoop filter with a single holder of the requested data.
system.tol3bus.snoop_filter.hit_multi_snoops            0                       # Number of snoops hitting in the snoop filter with multiple (>1) holders of the requested data.
system.tol3bus.pwrStateResidencyTicks::UNDEFINED   2133007857                       # Cumulative time (in ticks) in various power states
system.tol3bus.trans_dist::ReadResp             12035                       # Transaction distribution
system.tol3bus.trans_dist::WritebackDirty         1762                       # Transaction distribution
system.tol3bus.trans_dist::CleanEvict            6441                       # Transaction distribution
system.tol3bus.trans_dist::ReadExReq            14297                       # Transaction distribution
system.tol3bus.trans_dist::ReadExResp           14297                       # Transaction distribution
system.tol3bus.trans_dist::ReadSharedReq        12035                       # Transaction distribution
system.tol3bus.pkt_count_system.cpu0.l2cache.mem_side::system.l3.cpu_side        15083                       # Packet count per connected master and slave (bytes)
system.tol3bus.pkt_count_system.cpu1.l2cache.mem_side::system.l3.cpu_side        15475                       # Packet count per connected master and slave (bytes)
system.tol3bus.pkt_count_system.cpu2.l2cache.mem_side::system.l3.cpu_side        15131                       # Packet count per connected master and slave (bytes)
system.tol3bus.pkt_count_system.cpu3.l2cache.mem_side::system.l3.cpu_side        15178                       # Packet count per connected master and slave (bytes)
system.tol3bus.pkt_count::total                 60867                       # Packet count per connected master and slave (bytes)
system.tol3bus.pkt_size_system.cpu0.l2cache.mem_side::system.l3.cpu_side       441856                       # Cumulative packet size per connected master and slave (bytes)
system.tol3bus.pkt_size_system.cpu1.l2cache.mem_side::system.l3.cpu_side       461056                       # Cumulative packet size per connected master and slave (bytes)
system.tol3bus.pkt_size_system.cpu2.l2cache.mem_side::system.l3.cpu_side       446528                       # Cumulative packet size per connected master and slave (bytes)
system.tol3bus.pkt_size_system.cpu3.l2cache.mem_side::system.l3.cpu_side       448576                       # Cumulative packet size per connected master and slave (bytes)
system.tol3bus.pkt_size::total                1798016                       # Cumulative packet size per connected master and slave (bytes)
system.tol3bus.snoops                               0                       # Total snoops (count)
system.tol3bus.snoopTraffic                         0                       # Total snoop traffic (bytes)
system.tol3bus.snoop_fanout::samples            26332                       # Request fanout histogram
system.tol3bus.snoop_fanout::mean                   0                       # Request fanout histogram
system.tol3bus.snoop_fanout::stdev                  0                       # Request fanout histogram
system.tol3bus.snoop_fanout::underflows             0      0.00%      0.00% # Request fanout histogram
system.tol3bus.snoop_fanout::0                  26332    100.00%    100.00% # Request fanout histogram
system.tol3bus.snoop_fanout::1                      0      0.00%    100.00% # Request fanout histogram
system.tol3bus.snoop_fanout::2                      0      0.00%    100.00% # Request fanout histogram
system.tol3bus.snoop_fanout::3                      0      0.00%    100.00% # Request fanout histogram
system.tol3bus.snoop_fanout::4                      0      0.00%    100.00% # Request fanout histogram
system.tol3bus.snoop_fanout::overflows              0      0.00%    100.00% # Request fanout histogram
system.tol3bus.snoop_fanout::min_value              0                       # Request fanout histogram
system.tol3bus.snoop_fanout::max_value              0                       # Request fanout histogram
system.tol3bus.snoop_fanout::total              26332                       # Request fanout histogram
system.tol3bus.reqLayer0.occupancy           49420493                       # Layer occupancy (ticks)
system.tol3bus.reqLayer0.utilization              2.3                       # Layer utilization (%)
system.tol3bus.respLayer0.occupancy          20781208                       # Layer occupancy (ticks)
system.tol3bus.respLayer0.utilization             1.0                       # Layer utilization (%)
system.tol3bus.respLayer1.occupancy          21203623                       # Layer occupancy (ticks)
system.tol3bus.respLayer1.utilization             1.0                       # Layer utilization (%)
system.tol3bus.respLayer2.occupancy          20809844                       # Layer occupancy (ticks)
system.tol3bus.respLayer2.utilization             1.0                       # Layer utilization (%)
system.tol3bus.respLayer3.occupancy          20914954                       # Layer occupancy (ticks)
system.tol3bus.respLayer3.utilization             1.0                       # Layer utilization (%)

---------- End Simulation Statistics   ----------
