
---------- Begin Simulation Statistics ----------
sim_seconds                                  0.004804                       # Number of seconds simulated
sim_ticks                                  4804253271                       # Number of ticks simulated
final_tick                                 4804253271                       # Number of ticks from beginning of simulation (restored from checkpoints and never reset)
sim_freq                                 1000000000000                       # Frequency of simulated ticks
host_inst_rate                                  99283                       # Simulator instruction rate (inst/s)
host_op_rate                                   200264                       # Simulator op (including micro ops) rate (op/s)
host_tick_rate                               12035903                       # Simulator tick rate (ticks/s)
host_mem_usage                               33958904                       # Number of bytes of host memory used
host_seconds                                   399.16                       # Real time elapsed on the host
sim_insts                                    39629651                       # Number of instructions simulated
sim_ops                                      79937287                       # Number of ops (including micro ops) simulated
system.voltage_domain.voltage                       1                       # Voltage in Volts
system.clk_domain.clock                          1000                       # Clock period in ticks
system.mem_ctrls.pwrStateResidencyTicks::UNDEFINED   4804253271                       # Cumulative time (in ticks) in various power states
system.mem_ctrls.bytes_read::cpu0.inst         183872                       # Number of bytes read from this memory
system.mem_ctrls.bytes_read::cpu0.data         786048                       # Number of bytes read from this memory
system.mem_ctrls.bytes_read::cpu1.inst         183424                       # Number of bytes read from this memory
system.mem_ctrls.bytes_read::cpu1.data         781312                       # Number of bytes read from this memory
system.mem_ctrls.bytes_read::cpu2.inst         183424                       # Number of bytes read from this memory
system.mem_ctrls.bytes_read::cpu2.data         779264                       # Number of bytes read from this memory
system.mem_ctrls.bytes_read::cpu3.inst         189440                       # Number of bytes read from this memory
system.mem_ctrls.bytes_read::cpu3.data         805952                       # Number of bytes read from this memory
system.mem_ctrls.bytes_read::total            3892736                       # Number of bytes read from this memory
system.mem_ctrls.bytes_inst_read::cpu0.inst       183872                       # Number of instructions bytes read from this memory
system.mem_ctrls.bytes_inst_read::cpu1.inst       183424                       # Number of instructions bytes read from this memory
system.mem_ctrls.bytes_inst_read::cpu2.inst       183424                       # Number of instructions bytes read from this memory
system.mem_ctrls.bytes_inst_read::cpu3.inst       189440                       # Number of instructions bytes read from this memory
system.mem_ctrls.bytes_inst_read::total        740160                       # Number of instructions bytes read from this memory
system.mem_ctrls.num_reads::cpu0.inst            2873                       # Number of read requests responded to by this memory
system.mem_ctrls.num_reads::cpu0.data           12282                       # Number of read requests responded to by this memory
system.mem_ctrls.num_reads::cpu1.inst            2866                       # Number of read requests responded to by this memory
system.mem_ctrls.num_reads::cpu1.data           12208                       # Number of read requests responded to by this memory
system.mem_ctrls.num_reads::cpu2.inst            2866                       # Number of read requests responded to by this memory
system.mem_ctrls.num_reads::cpu2.data           12176                       # Number of read requests responded to by this memory
system.mem_ctrls.num_reads::cpu3.inst            2960                       # Number of read requests responded to by this memory
system.mem_ctrls.num_reads::cpu3.data           12593                       # Number of read requests responded to by this memory
system.mem_ctrls.num_reads::total               60824                       # Number of read requests responded to by this memory
system.mem_ctrls.bw_read::cpu0.inst          38272753                       # Total read bandwidth from this memory (bytes/s)
system.mem_ctrls.bw_read::cpu0.data         163615021                       # Total read bandwidth from this memory (bytes/s)
system.mem_ctrls.bw_read::cpu1.inst          38179503                       # Total read bandwidth from this memory (bytes/s)
system.mem_ctrls.bw_read::cpu1.data         162629228                       # Total read bandwidth from this memory (bytes/s)
system.mem_ctrls.bw_read::cpu2.inst          38179503                       # Total read bandwidth from this memory (bytes/s)
system.mem_ctrls.bw_read::cpu2.data         162202939                       # Total read bandwidth from this memory (bytes/s)
system.mem_ctrls.bw_read::cpu3.inst          39431726                       # Total read bandwidth from this memory (bytes/s)
system.mem_ctrls.bw_read::cpu3.data         167758017                       # Total read bandwidth from this memory (bytes/s)
system.mem_ctrls.bw_read::total             810268689                       # Total read bandwidth from this memory (bytes/s)
system.mem_ctrls.bw_inst_read::cpu0.inst     38272753                       # Instruction read bandwidth from this memory (bytes/s)
system.mem_ctrls.bw_inst_read::cpu1.inst     38179503                       # Instruction read bandwidth from this memory (bytes/s)
system.mem_ctrls.bw_inst_read::cpu2.inst     38179503                       # Instruction read bandwidth from this memory (bytes/s)
system.mem_ctrls.bw_inst_read::cpu3.inst     39431726                       # Instruction read bandwidth from this memory (bytes/s)
system.mem_ctrls.bw_inst_read::total        154063485                       # Instruction read bandwidth from this memory (bytes/s)
system.mem_ctrls.bw_total::cpu0.inst         38272753                       # Total bandwidth to/from this memory (bytes/s)
system.mem_ctrls.bw_total::cpu0.data        163615021                       # Total bandwidth to/from this memory (bytes/s)
system.mem_ctrls.bw_total::cpu1.inst         38179503                       # Total bandwidth to/from this memory (bytes/s)
system.mem_ctrls.bw_total::cpu1.data        162629228                       # Total bandwidth to/from this memory (bytes/s)
system.mem_ctrls.bw_total::cpu2.inst         38179503                       # Total bandwidth to/from this memory (bytes/s)
system.mem_ctrls.bw_total::cpu2.data        162202939                       # Total bandwidth to/from this memory (bytes/s)
system.mem_ctrls.bw_total::cpu3.inst         39431726                       # Total bandwidth to/from this memory (bytes/s)
system.mem_ctrls.bw_total::cpu3.data        167758017                       # Total bandwidth to/from this memory (bytes/s)
system.mem_ctrls.bw_total::total            810268689                       # Total bandwidth to/from this memory (bytes/s)
system.pwrStateResidencyTicks::UNDEFINED   4804253271                       # Cumulative time (in ticks) in various power states
system.cpu0.branchPred.lookups                5783004                       # Number of BP lookups
system.cpu0.branchPred.condPredicted          5783004                       # Number of conditional branches predicted
system.cpu0.branchPred.condIncorrect           464935                       # Number of conditional branches incorrect
system.cpu0.branchPred.BTBLookups             5302202                       # Number of BTB lookups
system.cpu0.branchPred.BTBHits                      0                       # Number of BTB hits
system.cpu0.branchPred.BTBCorrect                   0                       # Number of correct BTB predictions (this stat may not work properly.
system.cpu0.branchPred.BTBHitPct             0.000000                       # BTB Hit Percentage
system.cpu0.branchPred.usedRAS                 254312                       # Number of times the RAS was used to get a target.
system.cpu0.branchPred.RASInCorrect             59908                       # Number of incorrect RAS predictions.
system.cpu0.branchPred.indirectLookups        5302202                       # Number of indirect predictor lookups.
system.cpu0.branchPred.indirectHits           1958865                       # Number of indirect target hits.
system.cpu0.branchPred.indirectMisses         3343337                       # Number of indirect misses.
system.cpu0.branchPredindirectMispredicted       314363                       # Number of mispredicted indirect branches.
system.cpu_voltage_domain.voltage                   1                       # Voltage in Volts
system.cpu_clk_domain.clock                       333                       # Clock period in ticks
system.cpu0.dtb.walker.pwrStateResidencyTicks::UNDEFINED   4804253271                       # Cumulative time (in ticks) in various power states
system.cpu0.dtb.rdAccesses                    2964379                       # TLB accesses on read requests
system.cpu0.dtb.wrAccesses                    1557130                       # TLB accesses on write requests
system.cpu0.dtb.rdMisses                        50732                       # TLB misses on read requests
system.cpu0.dtb.wrMisses                         8331                       # TLB misses on write requests
system.cpu0.apic_clk_domain.clock                5328                       # Clock period in ticks
system.cpu0.interrupts.pwrStateResidencyTicks::UNDEFINED   4804253271                       # Cumulative time (in ticks) in various power states
system.cpu0.itb.walker.pwrStateResidencyTicks::UNDEFINED   4804253271                       # Cumulative time (in ticks) in various power states
system.cpu0.itb.rdAccesses                          0                       # TLB accesses on read requests
system.cpu0.itb.wrAccesses                    2274874                       # TLB accesses on write requests
system.cpu0.itb.rdMisses                            0                       # TLB misses on read requests
system.cpu0.itb.wrMisses                         1118                       # TLB misses on write requests
system.cpu0.workload.numSyscalls                   53                       # Number of system calls
system.cpu0.pwrStateResidencyTicks::ON     4804253271                       # Cumulative time (in ticks) in various power states
system.cpu0.numCycles                        14427188                       # number of cpu cycles simulated
system.cpu0.numWorkItemsStarted                     0                       # number of work items this cpu started
system.cpu0.numWorkItemsCompleted                   0                       # number of work items this cpu completed
system.cpu0.fetch.icacheStallCycles           2708750                       # Number of cycles fetch is stalled on an Icache miss
system.cpu0.fetch.Insts                      23310049                       # Number of instructions fetch has processed
system.cpu0.fetch.Branches                    5783004                       # Number of branches that fetch encountered
system.cpu0.fetch.predictedBranches           2213177                       # Number of branches that fetch has predicted taken
system.cpu0.fetch.Cycles                     11024964                       # Number of cycles fetch has run and was not squashing or blocked
system.cpu0.fetch.SquashCycles                 931798                       # Number of cycles fetch has spent squashing
system.cpu0.fetch.TlbCycles                         8                       # Number of cycles fetch has spent waiting for tlb
system.cpu0.fetch.MiscStallCycles                 427                       # Number of cycles fetch has spent waiting on interrupts, or bad addresses, or out of MSHRs
system.cpu0.fetch.PendingTrapStallCycles         4643                       # Number of stall cycles due to pending traps
system.cpu0.fetch.PendingQuiesceStallCycles         1939                       # Number of stall cycles due to pending quiesce instructions
system.cpu0.fetch.IcacheWaitRetryStallCycles          517                       # Number of stall cycles due to full MSHR
system.cpu0.fetch.CacheLines                  2274041                       # Number of cache lines fetched
system.cpu0.fetch.IcacheSquashes               104758                       # Number of outstanding Icache misses that were squashed
system.cpu0.fetch.rateDist::samples          14207147                       # Number of instructions fetched each cycle (Total)
system.cpu0.fetch.rateDist::mean             3.351754                       # Number of instructions fetched each cycle (Total)
system.cpu0.fetch.rateDist::stdev            3.674149                       # Number of instructions fetched each cycle (Total)
system.cpu0.fetch.rateDist::underflows              0      0.00%      0.00% # Number of instructions fetched each cycle (Total)
system.cpu0.fetch.rateDist::0                 7050453     49.63%     49.63% # Number of instructions fetched each cycle (Total)
system.cpu0.fetch.rateDist::1                  354830      2.50%     52.12% # Number of instructions fetched each cycle (Total)
system.cpu0.fetch.rateDist::2                  282010      1.98%     54.11% # Number of instructions fetched each cycle (Total)
system.cpu0.fetch.rateDist::3                  397403      2.80%     56.91% # Number of instructions fetched each cycle (Total)
system.cpu0.fetch.rateDist::4                  276392      1.95%     58.85% # Number of instructions fetched each cycle (Total)
system.cpu0.fetch.rateDist::5                  381693      2.69%     61.54% # Number of instructions fetched each cycle (Total)
system.cpu0.fetch.rateDist::6                  484063      3.41%     64.95% # Number of instructions fetched each cycle (Total)
system.cpu0.fetch.rateDist::7                  253038      1.78%     66.73% # Number of instructions fetched each cycle (Total)
system.cpu0.fetch.rateDist::8                 4727265     33.27%    100.00% # Number of instructions fetched each cycle (Total)
system.cpu0.fetch.rateDist::overflows               0      0.00%    100.00% # Number of instructions fetched each cycle (Total)
system.cpu0.fetch.rateDist::min_value               0                       # Number of instructions fetched each cycle (Total)
system.cpu0.fetch.rateDist::max_value               8                       # Number of instructions fetched each cycle (Total)
system.cpu0.fetch.rateDist::total            14207147                       # Number of instructions fetched each cycle (Total)
system.cpu0.fetch.branchRate                 0.400841                       # Number of branch fetches per cycle
system.cpu0.fetch.rate                       1.615703                       # Number of inst fetches per cycle
system.cpu0.decode.IdleCycles                 2283418                       # Number of cycles decode is idle
system.cpu0.decode.BlockedCycles              5522794                       # Number of cycles decode is blocked
system.cpu0.decode.RunCycles                  5027253                       # Number of cycles decode is running
system.cpu0.decode.UnblockCycles               907783                       # Number of cycles decode is unblocking
system.cpu0.decode.SquashCycles                465899                       # Number of cycles decode is squashing
system.cpu0.decode.DecodedInsts              42835061                       # Number of instructions handled by decode
system.cpu0.rename.SquashCycles                465899                       # Number of cycles rename is squashing
system.cpu0.rename.IdleCycles                 2792223                       # Number of cycles rename is idle
system.cpu0.rename.BlockCycles                2167982                       # Number of cycles rename is blocking
system.cpu0.rename.serializeStallCycles          4232                       # count of cycles rename stalled for serializing inst
system.cpu0.rename.RunCycles                  5353682                       # Number of cycles rename is running
system.cpu0.rename.UnblockCycles              3423129                       # Number of cycles rename is unblocking
system.cpu0.rename.RenamedInsts              40335589                       # Number of instructions processed by rename
system.cpu0.rename.ROBFullEvents                15444                       # Number of times rename has blocked due to ROB full
system.cpu0.rename.IQFullEvents                980607                       # Number of times rename has blocked due to IQ full
system.cpu0.rename.LQFullEvents                217219                       # Number of times rename has blocked due to LQ full
system.cpu0.rename.SQFullEvents               2151137                       # Number of times rename has blocked due to SQ full
system.cpu0.rename.RenamedOperands           48655673                       # Number of destination operands rename has renamed
system.cpu0.rename.RenameLookups            106279533                       # Number of register rename lookups that rename has made
system.cpu0.rename.int_rename_lookups        61587393                       # Number of integer rename lookups
system.cpu0.rename.fp_rename_lookups          2176812                       # Number of floating rename lookups
system.cpu0.rename.CommittedMaps             24712954                       # Number of HB maps that are committed
system.cpu0.rename.UndoneMaps                23942719                       # Number of HB maps that are undone due to squashing
system.cpu0.rename.serializingInsts               173                       # count of serializing insts renamed
system.cpu0.rename.tempSerializingInsts           181                       # count of temporary serializing insts renamed
system.cpu0.rename.skidInsts                  3254362                       # count of insts added to the skid buffer
system.cpu0.memDep0.insertedLoads             3908514                       # Number of loads inserted to the mem dependence unit.
system.cpu0.memDep0.insertedStores            2179430                       # Number of stores inserted to the mem dependence unit.
system.cpu0.memDep0.conflictingLoads           173223                       # Number of conflicting loads.
system.cpu0.memDep0.conflictingStores          122745                       # Number of conflicting stores.
system.cpu0.iq.iqInstsAdded                  35693396                       # Number of instructions added to the IQ (excludes non-spec)
system.cpu0.iq.iqNonSpecInstsAdded               7794                       # Number of non-speculative instructions added to the IQ
system.cpu0.iq.iqInstsIssued                 29167580                       # Number of instructions issued
system.cpu0.iq.iqSquashedInstsIssued           240603                       # Number of squashed instructions issued
system.cpu0.iq.iqSquashedInstsExamined       15745457                       # Number of squashed instructions iterated over during squash; mainly for profiling
system.cpu0.iq.iqSquashedOperandsExamined     27677534                       # Number of squashed operands that are examined and possibly removed from graph
system.cpu0.iq.iqSquashedNonSpecRemoved          5956                       # Number of squashed non-spec instructions that were removed
system.cpu0.iq.issued_per_cycle::samples     14207147                       # Number of insts issued each cycle
system.cpu0.iq.issued_per_cycle::mean        2.053022                       # Number of insts issued each cycle
system.cpu0.iq.issued_per_cycle::stdev       2.436485                       # Number of insts issued each cycle
system.cpu0.iq.issued_per_cycle::underflows            0      0.00%      0.00% # Number of insts issued each cycle
system.cpu0.iq.issued_per_cycle::0            6492646     45.70%     45.70% # Number of insts issued each cycle
system.cpu0.iq.issued_per_cycle::1            1368037      9.63%     55.33% # Number of insts issued each cycle
system.cpu0.iq.issued_per_cycle::2            1334904      9.40%     64.73% # Number of insts issued each cycle
system.cpu0.iq.issued_per_cycle::3            1003019      7.06%     71.79% # Number of insts issued each cycle
system.cpu0.iq.issued_per_cycle::4            1178437      8.29%     80.08% # Number of insts issued each cycle
system.cpu0.iq.issued_per_cycle::5             815959      5.74%     85.82% # Number of insts issued each cycle
system.cpu0.iq.issued_per_cycle::6            1059060      7.45%     93.28% # Number of insts issued each cycle
system.cpu0.iq.issued_per_cycle::7             667905      4.70%     97.98% # Number of insts issued each cycle
system.cpu0.iq.issued_per_cycle::8             287180      2.02%    100.00% # Number of insts issued each cycle
system.cpu0.iq.issued_per_cycle::overflows            0      0.00%    100.00% # Number of insts issued each cycle
system.cpu0.iq.issued_per_cycle::min_value            0                       # Number of insts issued each cycle
system.cpu0.iq.issued_per_cycle::max_value            8                       # Number of insts issued each cycle
system.cpu0.iq.issued_per_cycle::total       14207147                       # Number of insts issued each cycle
system.cpu0.iq.fu_full::No_OpClass                  0      0.00%      0.00% # attempts to use FU when none available
system.cpu0.iq.fu_full::IntAlu                 743688     92.31%     92.31% # attempts to use FU when none available
system.cpu0.iq.fu_full::IntMult                     0      0.00%     92.31% # attempts to use FU when none available
system.cpu0.iq.fu_full::IntDiv                      0      0.00%     92.31% # attempts to use FU when none available
system.cpu0.iq.fu_full::FloatAdd                12206      1.52%     93.82% # attempts to use FU when none available
system.cpu0.iq.fu_full::FloatCmp                    0      0.00%     93.82% # attempts to use FU when none available
system.cpu0.iq.fu_full::FloatCvt                    0      0.00%     93.82% # attempts to use FU when none available
system.cpu0.iq.fu_full::FloatMult                   0      0.00%     93.82% # attempts to use FU when none available
system.cpu0.iq.fu_full::FloatMultAcc                0      0.00%     93.82% # attempts to use FU when none available
system.cpu0.iq.fu_full::FloatDiv                    0      0.00%     93.82% # attempts to use FU when none available
system.cpu0.iq.fu_full::FloatMisc                   0      0.00%     93.82% # attempts to use FU when none available
system.cpu0.iq.fu_full::FloatSqrt                   0      0.00%     93.82% # attempts to use FU when none available
system.cpu0.iq.fu_full::SimdAdd                     0      0.00%     93.82% # attempts to use FU when none available
system.cpu0.iq.fu_full::SimdAddAcc                  0      0.00%     93.82% # attempts to use FU when none available
system.cpu0.iq.fu_full::SimdAlu                     0      0.00%     93.82% # attempts to use FU when none available
system.cpu0.iq.fu_full::SimdCmp                     0      0.00%     93.82% # attempts to use FU when none available
system.cpu0.iq.fu_full::SimdCvt                     0      0.00%     93.82% # attempts to use FU when none available
system.cpu0.iq.fu_full::SimdMisc                    0      0.00%     93.82% # attempts to use FU when none available
system.cpu0.iq.fu_full::SimdMult                    0      0.00%     93.82% # attempts to use FU when none available
system.cpu0.iq.fu_full::SimdMultAcc                 0      0.00%     93.82% # attempts to use FU when none available
system.cpu0.iq.fu_full::SimdShift                   0      0.00%     93.82% # attempts to use FU when none available
system.cpu0.iq.fu_full::SimdShiftAcc                0      0.00%     93.82% # attempts to use FU when none available
system.cpu0.iq.fu_full::SimdSqrt                    0      0.00%     93.82% # attempts to use FU when none available
system.cpu0.iq.fu_full::SimdFloatAdd                0      0.00%     93.82% # attempts to use FU when none available
system.cpu0.iq.fu_full::SimdFloatAlu                0      0.00%     93.82% # attempts to use FU when none available
system.cpu0.iq.fu_full::SimdFloatCmp                0      0.00%     93.82% # attempts to use FU when none available
system.cpu0.iq.fu_full::SimdFloatCvt                0      0.00%     93.82% # attempts to use FU when none available
system.cpu0.iq.fu_full::SimdFloatDiv                0      0.00%     93.82% # attempts to use FU when none available
system.cpu0.iq.fu_full::SimdFloatMisc               0      0.00%     93.82% # attempts to use FU when none available
system.cpu0.iq.fu_full::SimdFloatMult               0      0.00%     93.82% # attempts to use FU when none available
system.cpu0.iq.fu_full::SimdFloatMultAcc            0      0.00%     93.82% # attempts to use FU when none available
system.cpu0.iq.fu_full::SimdFloatSqrt               0      0.00%     93.82% # attempts to use FU when none available
system.cpu0.iq.fu_full::MemRead                 16136      2.00%     95.83% # attempts to use FU when none available
system.cpu0.iq.fu_full::MemWrite                20663      2.56%     98.39% # attempts to use FU when none available
system.cpu0.iq.fu_full::FloatMemRead            11040      1.37%     99.76% # attempts to use FU when none available
system.cpu0.iq.fu_full::FloatMemWrite            1922      0.24%    100.00% # attempts to use FU when none available
system.cpu0.iq.fu_full::IprAccess                   0      0.00%    100.00% # attempts to use FU when none available
system.cpu0.iq.fu_full::InstPrefetch                0      0.00%    100.00% # attempts to use FU when none available
system.cpu0.iq.FU_type_0::No_OpClass           726088      2.49%      2.49% # Type of FU issued
system.cpu0.iq.FU_type_0::IntAlu             22810284     78.20%     80.69% # Type of FU issued
system.cpu0.iq.FU_type_0::IntMult                8405      0.03%     80.72% # Type of FU issued
system.cpu0.iq.FU_type_0::IntDiv               166281      0.57%     81.29% # Type of FU issued
system.cpu0.iq.FU_type_0::FloatAdd             630893      2.16%     83.46% # Type of FU issued
system.cpu0.iq.FU_type_0::FloatCmp                  0      0.00%     83.46% # Type of FU issued
system.cpu0.iq.FU_type_0::FloatCvt                  0      0.00%     83.46% # Type of FU issued
system.cpu0.iq.FU_type_0::FloatMult                 0      0.00%     83.46% # Type of FU issued
system.cpu0.iq.FU_type_0::FloatMultAcc              0      0.00%     83.46% # Type of FU issued
system.cpu0.iq.FU_type_0::FloatDiv                  0      0.00%     83.46% # Type of FU issued
system.cpu0.iq.FU_type_0::FloatMisc                 0      0.00%     83.46% # Type of FU issued
system.cpu0.iq.FU_type_0::FloatSqrt                 0      0.00%     83.46% # Type of FU issued
system.cpu0.iq.FU_type_0::SimdAdd                   0      0.00%     83.46% # Type of FU issued
system.cpu0.iq.FU_type_0::SimdAddAcc                0      0.00%     83.46% # Type of FU issued
system.cpu0.iq.FU_type_0::SimdAlu                   0      0.00%     83.46% # Type of FU issued
system.cpu0.iq.FU_type_0::SimdCmp                   0      0.00%     83.46% # Type of FU issued
system.cpu0.iq.FU_type_0::SimdCvt                   0      0.00%     83.46% # Type of FU issued
system.cpu0.iq.FU_type_0::SimdMisc                  0      0.00%     83.46% # Type of FU issued
system.cpu0.iq.FU_type_0::SimdMult                  0      0.00%     83.46% # Type of FU issued
system.cpu0.iq.FU_type_0::SimdMultAcc               0      0.00%     83.46% # Type of FU issued
system.cpu0.iq.FU_type_0::SimdShift                 0      0.00%     83.46% # Type of FU issued
system.cpu0.iq.FU_type_0::SimdShiftAcc              0      0.00%     83.46% # Type of FU issued
system.cpu0.iq.FU_type_0::SimdSqrt                  0      0.00%     83.46% # Type of FU issued
system.cpu0.iq.FU_type_0::SimdFloatAdd              0      0.00%     83.46% # Type of FU issued
system.cpu0.iq.FU_type_0::SimdFloatAlu              0      0.00%     83.46% # Type of FU issued
system.cpu0.iq.FU_type_0::SimdFloatCmp              0      0.00%     83.46% # Type of FU issued
system.cpu0.iq.FU_type_0::SimdFloatCvt              0      0.00%     83.46% # Type of FU issued
system.cpu0.iq.FU_type_0::SimdFloatDiv              0      0.00%     83.46% # Type of FU issued
system.cpu0.iq.FU_type_0::SimdFloatMisc             0      0.00%     83.46% # Type of FU issued
system.cpu0.iq.FU_type_0::SimdFloatMult             0      0.00%     83.46% # Type of FU issued
system.cpu0.iq.FU_type_0::SimdFloatMultAcc            0      0.00%     83.46% # Type of FU issued
system.cpu0.iq.FU_type_0::SimdFloatSqrt             0      0.00%     83.46% # Type of FU issued
system.cpu0.iq.FU_type_0::MemRead             2790319      9.57%     93.02% # Type of FU issued
system.cpu0.iq.FU_type_0::MemWrite            1626824      5.58%     98.60% # Type of FU issued
system.cpu0.iq.FU_type_0::FloatMemRead         360070      1.23%     99.83% # Type of FU issued
system.cpu0.iq.FU_type_0::FloatMemWrite         48416      0.17%    100.00% # Type of FU issued
system.cpu0.iq.FU_type_0::IprAccess                 0      0.00%    100.00% # Type of FU issued
system.cpu0.iq.FU_type_0::InstPrefetch              0      0.00%    100.00% # Type of FU issued
system.cpu0.iq.FU_type_0::total              29167580                       # Type of FU issued
system.cpu0.iq.rate                          2.021709                       # Inst issue rate
system.cpu0.iq.fu_busy_cnt                     805655                       # FU busy when requested
system.cpu0.iq.fu_busy_rate                  0.027622                       # FU busy rate (busy events/executed inst)
system.cpu0.iq.int_inst_queue_reads          71353574                       # Number of integer instruction queue reads
system.cpu0.iq.int_inst_queue_writes         49479931                       # Number of integer instruction queue writes
system.cpu0.iq.int_inst_queue_wakeup_accesses     26573849                       # Number of integer instruction queue wakeup accesses
system.cpu0.iq.fp_inst_queue_reads            2234991                       # Number of floating instruction queue reads
system.cpu0.iq.fp_inst_queue_writes           1967526                       # Number of floating instruction queue writes
system.cpu0.iq.fp_inst_queue_wakeup_accesses      1008286                       # Number of floating instruction queue wakeup accesses
system.cpu0.iq.vec_inst_queue_reads                 0                       # Number of vector instruction queue reads
system.cpu0.iq.vec_inst_queue_writes                0                       # Number of vector instruction queue writes
system.cpu0.iq.vec_inst_queue_wakeup_accesses            0                       # Number of vector instruction queue wakeup accesses
system.cpu0.iq.int_alu_accesses              28120789                       # Number of integer alu accesses
system.cpu0.iq.fp_alu_accesses                1126358                       # Number of floating point alu accesses
system.cpu0.iq.vec_alu_accesses                     0                       # Number of vector alu accesses
system.cpu0.iew.lsq.thread0.forwLoads          189209                       # Number of loads that had data forwarded from stores
system.cpu0.iew.lsq.thread0.invAddrLoads            0                       # Number of loads ignored due to an invalid address
system.cpu0.iew.lsq.thread0.squashedLoads      1939261                       # Number of loads squashed
system.cpu0.iew.lsq.thread0.ignoredResponses         2784                       # Number of memory responses ignored because the instruction is squashed
system.cpu0.iew.lsq.thread0.memOrderViolation          895                       # Number of memory ordering violations
system.cpu0.iew.lsq.thread0.squashedStores       984975                       # Number of stores squashed
system.cpu0.iew.lsq.thread0.invAddrSwpfs            0                       # Number of software prefetches ignored due to an invalid address
system.cpu0.iew.lsq.thread0.blockedLoads            0                       # Number of blocked loads due to partial load-store forwarding
system.cpu0.iew.lsq.thread0.rescheduledLoads        13536                       # Number of loads that were rescheduled
system.cpu0.iew.lsq.thread0.cacheBlocked         1755                       # Number of times an access to memory failed due to the cache being blocked
system.cpu0.iew.iewIdleCycles                       0                       # Number of cycles IEW is idle
system.cpu0.iew.iewSquashCycles                465899                       # Number of cycles IEW is squashing
system.cpu0.iew.iewBlockCycles                1904126                       # Number of cycles IEW is blocking
system.cpu0.iew.iewUnblockCycles               172535                       # Number of cycles IEW is unblocking
system.cpu0.iew.iewDispatchedInsts           35701200                       # Number of instructions dispatched to IQ
system.cpu0.iew.iewDispSquashedInsts            46207                       # Number of squashed instructions skipped by dispatch
system.cpu0.iew.iewDispLoadInsts              3908514                       # Number of dispatched load instructions
system.cpu0.iew.iewDispStoreInsts             2179430                       # Number of dispatched store instructions
system.cpu0.iew.iewDispNonSpecInsts              2952                       # Number of dispatched non-speculative instructions
system.cpu0.iew.iewIQFullEvents                  3082                       # Number of times the IQ has become full, causing a stall
system.cpu0.iew.iewLSQFullEvents               167559                       # Number of times the LSQ has become full, causing a stall
system.cpu0.iew.memOrderViolationEvents           895                       # Number of memory order violations
system.cpu0.iew.predictedTakenIncorrect        147442                       # Number of branches that were predicted taken incorrectly
system.cpu0.iew.predictedNotTakenIncorrect       462528                       # Number of branches that were predicted not taken incorrectly
system.cpu0.iew.branchMispredicts              609970                       # Number of branch mispredicts detected at execute
system.cpu0.iew.iewExecutedInsts             28045189                       # Number of executed instructions
system.cpu0.iew.iewExecLoadInsts              2947652                       # Number of load instructions executed
system.cpu0.iew.iewExecSquashedInsts          1122391                       # Number of squashed instructions skipped in execute
system.cpu0.iew.exec_swp                            0                       # number of swp insts executed
system.cpu0.iew.exec_nop                           10                       # number of nop insts executed
system.cpu0.iew.exec_refs                     4501193                       # number of memory reference insts executed
system.cpu0.iew.exec_branches                 3024589                       # Number of branches executed
system.cpu0.iew.exec_stores                   1553541                       # Number of stores executed
system.cpu0.iew.exec_rate                    1.943912                       # Inst execution rate
system.cpu0.iew.wb_sent                      27788029                       # cumulative count of insts sent to commit
system.cpu0.iew.wb_count                     27582135                       # cumulative count of insts written-back
system.cpu0.iew.wb_producers                 20354094                       # num instructions producing a value
system.cpu0.iew.wb_consumers                 36268496                       # num instructions consuming a value
system.cpu0.iew.wb_rate                      1.911816                       # insts written-back per cycle
system.cpu0.iew.wb_fanout                    0.561206                       # average fanout of values written-back
system.cpu0.commit.commitSquashedInsts       15747485                       # The number of squashed insts skipped by commit
system.cpu0.commit.commitNonSpecStalls           1838                       # The number of times commit has been forced to stall to communicate backwards
system.cpu0.commit.branchMispredicts           465315                       # The number of times a branch was mispredicted
system.cpu0.commit.committed_per_cycle::samples     11878536                       # Number of insts commited each cycle
system.cpu0.commit.committed_per_cycle::mean     1.679983                       # Number of insts commited each cycle
system.cpu0.commit.committed_per_cycle::stdev     2.442170                       # Number of insts commited each cycle
system.cpu0.commit.committed_per_cycle::underflows            0      0.00%      0.00% # Number of insts commited each cycle
system.cpu0.commit.committed_per_cycle::0      5964296     50.21%     50.21% # Number of insts commited each cycle
system.cpu0.commit.committed_per_cycle::1      1880207     15.83%     66.04% # Number of insts commited each cycle
system.cpu0.commit.committed_per_cycle::2       942821      7.94%     73.98% # Number of insts commited each cycle
system.cpu0.commit.committed_per_cycle::3      1007693      8.48%     82.46% # Number of insts commited each cycle
system.cpu0.commit.committed_per_cycle::4       575097      4.84%     87.30% # Number of insts commited each cycle
system.cpu0.commit.committed_per_cycle::5       275639      2.32%     89.62% # Number of insts commited each cycle
system.cpu0.commit.committed_per_cycle::6       135206      1.14%     90.76% # Number of insts commited each cycle
system.cpu0.commit.committed_per_cycle::7       103630      0.87%     91.63% # Number of insts commited each cycle
system.cpu0.commit.committed_per_cycle::8       993947      8.37%    100.00% # Number of insts commited each cycle
system.cpu0.commit.committed_per_cycle::overflows            0      0.00%    100.00% # Number of insts commited each cycle
system.cpu0.commit.committed_per_cycle::min_value            0                       # Number of insts commited each cycle
system.cpu0.commit.committed_per_cycle::max_value            8                       # Number of insts commited each cycle
system.cpu0.commit.committed_per_cycle::total     11878536                       # Number of insts commited each cycle
system.cpu0.commit.committedInsts             9889373                       # Number of instructions committed
system.cpu0.commit.committedOps              19955733                       # Number of ops (including micro ops) committed
system.cpu0.commit.swp_count                        0                       # Number of s/w prefetches committed
system.cpu0.commit.refs                       3163708                       # Number of memory references committed
system.cpu0.commit.loads                      1969253                       # Number of loads committed
system.cpu0.commit.membars                       1190                       # Number of memory barriers committed
system.cpu0.commit.branches                   2438419                       # Number of branches committed
system.cpu0.commit.vec_insts                        0                       # Number of committed Vector instructions.
system.cpu0.commit.fp_insts                    724304                       # Number of committed floating point instructions.
system.cpu0.commit.int_insts                 19069926                       # Number of committed integer instructions.
system.cpu0.commit.function_calls              108293                       # Number of function calls committed.
system.cpu0.commit.op_class_0::No_OpClass       478550      2.40%      2.40% # Class of committed instruction
system.cpu0.commit.op_class_0::IntAlu        15722747     78.79%     81.19% # Class of committed instruction
system.cpu0.commit.op_class_0::IntMult           7517      0.04%     81.22% # Class of committed instruction
system.cpu0.commit.op_class_0::IntDiv          141889      0.71%     81.93% # Class of committed instruction
system.cpu0.commit.op_class_0::FloatAdd        441322      2.21%     84.15% # Class of committed instruction
system.cpu0.commit.op_class_0::FloatCmp             0      0.00%     84.15% # Class of committed instruction
system.cpu0.commit.op_class_0::FloatCvt             0      0.00%     84.15% # Class of committed instruction
system.cpu0.commit.op_class_0::FloatMult            0      0.00%     84.15% # Class of committed instruction
system.cpu0.commit.op_class_0::FloatMultAcc            0      0.00%     84.15% # Class of committed instruction
system.cpu0.commit.op_class_0::FloatDiv             0      0.00%     84.15% # Class of committed instruction
system.cpu0.commit.op_class_0::FloatMisc            0      0.00%     84.15% # Class of committed instruction
system.cpu0.commit.op_class_0::FloatSqrt            0      0.00%     84.15% # Class of committed instruction
system.cpu0.commit.op_class_0::SimdAdd              0      0.00%     84.15% # Class of committed instruction
system.cpu0.commit.op_class_0::SimdAddAcc            0      0.00%     84.15% # Class of committed instruction
system.cpu0.commit.op_class_0::SimdAlu              0      0.00%     84.15% # Class of committed instruction
system.cpu0.commit.op_class_0::SimdCmp              0      0.00%     84.15% # Class of committed instruction
system.cpu0.commit.op_class_0::SimdCvt              0      0.00%     84.15% # Class of committed instruction
system.cpu0.commit.op_class_0::SimdMisc             0      0.00%     84.15% # Class of committed instruction
system.cpu0.commit.op_class_0::SimdMult             0      0.00%     84.15% # Class of committed instruction
system.cpu0.commit.op_class_0::SimdMultAcc            0      0.00%     84.15% # Class of committed instruction
system.cpu0.commit.op_class_0::SimdShift            0      0.00%     84.15% # Class of committed instruction
system.cpu0.commit.op_class_0::SimdShiftAcc            0      0.00%     84.15% # Class of committed instruction
system.cpu0.commit.op_class_0::SimdSqrt             0      0.00%     84.15% # Class of committed instruction
system.cpu0.commit.op_class_0::SimdFloatAdd            0      0.00%     84.15% # Class of committed instruction
system.cpu0.commit.op_class_0::SimdFloatAlu            0      0.00%     84.15% # Class of committed instruction
system.cpu0.commit.op_class_0::SimdFloatCmp            0      0.00%     84.15% # Class of committed instruction
system.cpu0.commit.op_class_0::SimdFloatCvt            0      0.00%     84.15% # Class of committed instruction
system.cpu0.commit.op_class_0::SimdFloatDiv            0      0.00%     84.15% # Class of committed instruction
system.cpu0.commit.op_class_0::SimdFloatMisc            0      0.00%     84.15% # Class of committed instruction
system.cpu0.commit.op_class_0::SimdFloatMult            0      0.00%     84.15% # Class of committed instruction
system.cpu0.commit.op_class_0::SimdFloatMultAcc            0      0.00%     84.15% # Class of committed instruction
system.cpu0.commit.op_class_0::SimdFloatSqrt            0      0.00%     84.15% # Class of committed instruction
system.cpu0.commit.op_class_0::MemRead        1764666      8.84%     92.99% # Class of committed instruction
system.cpu0.commit.op_class_0::MemWrite       1159855      5.81%     98.80% # Class of committed instruction
system.cpu0.commit.op_class_0::FloatMemRead       204587      1.03%     99.83% # Class of committed instruction
system.cpu0.commit.op_class_0::FloatMemWrite        34600      0.17%    100.00% # Class of committed instruction
system.cpu0.commit.op_class_0::IprAccess            0      0.00%    100.00% # Class of committed instruction
system.cpu0.commit.op_class_0::InstPrefetch            0      0.00%    100.00% # Class of committed instruction
system.cpu0.commit.op_class_0::total         19955733                       # Class of committed instruction
system.cpu0.commit.bw_lim_events               993947                       # number cycles where commit BW limit reached
system.cpu0.rob.rob_reads                    46587807                       # The number of ROB reads
system.cpu0.rob.rob_writes                   73763336                       # The number of ROB writes
system.cpu0.timesIdled                           1744                       # Number of times that the entire CPU went into an idle state and unscheduled itself
system.cpu0.idleCycles                         220041                       # Total number of cycles that the CPU has spent unscheduled due to idling
system.cpu0.committedInsts                    9889373                       # Number of Instructions Simulated
system.cpu0.committedOps                     19955733                       # Number of Ops (including micro ops) Simulated
system.cpu0.cpi                              1.458858                       # CPI: Cycles Per Instruction
system.cpu0.cpi_total                        1.458858                       # CPI: Total CPI of All Threads
system.cpu0.ipc                              0.685468                       # IPC: Instructions Per Cycle
system.cpu0.ipc_total                        0.685468                       # IPC: Total IPC of All Threads
system.cpu0.int_regfile_reads                39235129                       # number of integer regfile reads
system.cpu0.int_regfile_writes               22351936                       # number of integer regfile writes
system.cpu0.fp_regfile_reads                  1485173                       # number of floating regfile reads
system.cpu0.fp_regfile_writes                  844277                       # number of floating regfile writes
system.cpu0.cc_regfile_reads                 16417248                       # number of cc regfile reads
system.cpu0.cc_regfile_writes                10198826                       # number of cc regfile writes
system.cpu0.misc_regfile_reads               10273945                       # number of misc regfile reads
system.cpu0.dcache.tags.pwrStateResidencyTicks::UNDEFINED   4804253271                       # Cumulative time (in ticks) in various power states
system.cpu0.dcache.tags.replacements            44635                       # number of replacements
system.cpu0.dcache.tags.tagsinuse          508.566370                       # Cycle average of tags in use
system.cpu0.dcache.tags.total_refs            3836483                       # Total number of references to valid blocks.
system.cpu0.dcache.tags.sampled_refs            45147                       # Sample count of references to valid blocks.
system.cpu0.dcache.tags.avg_refs            84.977584                       # Average number of references to valid blocks.
system.cpu0.dcache.tags.warmup_cycle           155178                       # Cycle when the warmup percentage was hit.
system.cpu0.dcache.tags.occ_blocks::cpu0.data   508.566370                       # Average occupied blocks per requestor
system.cpu0.dcache.tags.occ_percent::cpu0.data     0.993294                       # Average percentage of cache occupancy
system.cpu0.dcache.tags.occ_percent::total     0.993294                       # Average percentage of cache occupancy
system.cpu0.dcache.tags.occ_task_id_blocks::1024          512                       # Occupied blocks per task id
system.cpu0.dcache.tags.age_task_id_blocks_1024::0          318                       # Occupied blocks per task id
system.cpu0.dcache.tags.age_task_id_blocks_1024::1          194                       # Occupied blocks per task id
system.cpu0.dcache.tags.occ_task_id_percent::1024            1                       # Percentage of cache occupancy per task id
system.cpu0.dcache.tags.tag_accesses         31304619                       # Number of tag accesses
system.cpu0.dcache.tags.data_accesses        31304619                       # Number of data accesses
system.cpu0.dcache.pwrStateResidencyTicks::UNDEFINED   4804253271                       # Cumulative time (in ticks) in various power states
system.cpu0.dcache.ReadReq_hits::cpu0.data      2659672                       # number of ReadReq hits
system.cpu0.dcache.ReadReq_hits::total        2659672                       # number of ReadReq hits
system.cpu0.dcache.WriteReq_hits::cpu0.data      1175491                       # number of WriteReq hits
system.cpu0.dcache.WriteReq_hits::total       1175491                       # number of WriteReq hits
system.cpu0.dcache.demand_hits::cpu0.data      3835163                       # number of demand (read+write) hits
system.cpu0.dcache.demand_hits::total         3835163                       # number of demand (read+write) hits
system.cpu0.dcache.overall_hits::cpu0.data      3835163                       # number of overall hits
system.cpu0.dcache.overall_hits::total        3835163                       # number of overall hits
system.cpu0.dcache.ReadReq_misses::cpu0.data        51334                       # number of ReadReq misses
system.cpu0.dcache.ReadReq_misses::total        51334                       # number of ReadReq misses
system.cpu0.dcache.WriteReq_misses::cpu0.data        20937                       # number of WriteReq misses
system.cpu0.dcache.WriteReq_misses::total        20937                       # number of WriteReq misses
system.cpu0.dcache.demand_misses::cpu0.data        72271                       # number of demand (read+write) misses
system.cpu0.dcache.demand_misses::total         72271                       # number of demand (read+write) misses
system.cpu0.dcache.overall_misses::cpu0.data        72271                       # number of overall misses
system.cpu0.dcache.overall_misses::total        72271                       # number of overall misses
system.cpu0.dcache.ReadReq_miss_latency::cpu0.data    444452103                       # number of ReadReq miss cycles
system.cpu0.dcache.ReadReq_miss_latency::total    444452103                       # number of ReadReq miss cycles
system.cpu0.dcache.WriteReq_miss_latency::cpu0.data    869142652                       # number of WriteReq miss cycles
system.cpu0.dcache.WriteReq_miss_latency::total    869142652                       # number of WriteReq miss cycles
system.cpu0.dcache.demand_miss_latency::cpu0.data   1313594755                       # number of demand (read+write) miss cycles
system.cpu0.dcache.demand_miss_latency::total   1313594755                       # number of demand (read+write) miss cycles
system.cpu0.dcache.overall_miss_latency::cpu0.data   1313594755                       # number of overall miss cycles
system.cpu0.dcache.overall_miss_latency::total   1313594755                       # number of overall miss cycles
system.cpu0.dcache.ReadReq_accesses::cpu0.data      2711006                       # number of ReadReq accesses(hits+misses)
system.cpu0.dcache.ReadReq_accesses::total      2711006                       # number of ReadReq accesses(hits+misses)
system.cpu0.dcache.WriteReq_accesses::cpu0.data      1196428                       # number of WriteReq accesses(hits+misses)
system.cpu0.dcache.WriteReq_accesses::total      1196428                       # number of WriteReq accesses(hits+misses)
system.cpu0.dcache.demand_accesses::cpu0.data      3907434                       # number of demand (read+write) accesses
system.cpu0.dcache.demand_accesses::total      3907434                       # number of demand (read+write) accesses
system.cpu0.dcache.overall_accesses::cpu0.data      3907434                       # number of overall (read+write) accesses
system.cpu0.dcache.overall_accesses::total      3907434                       # number of overall (read+write) accesses
system.cpu0.dcache.ReadReq_miss_rate::cpu0.data     0.018935                       # miss rate for ReadReq accesses
system.cpu0.dcache.ReadReq_miss_rate::total     0.018935                       # miss rate for ReadReq accesses
system.cpu0.dcache.WriteReq_miss_rate::cpu0.data     0.017500                       # miss rate for WriteReq accesses
system.cpu0.dcache.WriteReq_miss_rate::total     0.017500                       # miss rate for WriteReq accesses
system.cpu0.dcache.demand_miss_rate::cpu0.data     0.018496                       # miss rate for demand accesses
system.cpu0.dcache.demand_miss_rate::total     0.018496                       # miss rate for demand accesses
system.cpu0.dcache.overall_miss_rate::cpu0.data     0.018496                       # miss rate for overall accesses
system.cpu0.dcache.overall_miss_rate::total     0.018496                       # miss rate for overall accesses
system.cpu0.dcache.ReadReq_avg_miss_latency::cpu0.data  8658.045409                       # average ReadReq miss latency
system.cpu0.dcache.ReadReq_avg_miss_latency::total  8658.045409                       # average ReadReq miss latency
system.cpu0.dcache.WriteReq_avg_miss_latency::cpu0.data 41512.282180                       # average WriteReq miss latency
system.cpu0.dcache.WriteReq_avg_miss_latency::total 41512.282180                       # average WriteReq miss latency
system.cpu0.dcache.demand_avg_miss_latency::cpu0.data 18175.959306                       # average overall miss latency
system.cpu0.dcache.demand_avg_miss_latency::total 18175.959306                       # average overall miss latency
system.cpu0.dcache.overall_avg_miss_latency::cpu0.data 18175.959306                       # average overall miss latency
system.cpu0.dcache.overall_avg_miss_latency::total 18175.959306                       # average overall miss latency
system.cpu0.dcache.blocked_cycles::no_mshrs         6775                       # number of cycles access was blocked
system.cpu0.dcache.blocked_cycles::no_targets            0                       # number of cycles access was blocked
system.cpu0.dcache.blocked::no_mshrs              693                       # number of cycles access was blocked
system.cpu0.dcache.blocked::no_targets              0                       # number of cycles access was blocked
system.cpu0.dcache.avg_blocked_cycles::no_mshrs     9.776335                       # average number of cycles each access was blocked
system.cpu0.dcache.avg_blocked_cycles::no_targets          nan                       # average number of cycles each access was blocked
system.cpu0.dcache.writebacks::writebacks        38963                       # number of writebacks
system.cpu0.dcache.writebacks::total            38963                       # number of writebacks
system.cpu0.dcache.ReadReq_mshr_hits::cpu0.data        25971                       # number of ReadReq MSHR hits
system.cpu0.dcache.ReadReq_mshr_hits::total        25971                       # number of ReadReq MSHR hits
system.cpu0.dcache.WriteReq_mshr_hits::cpu0.data           26                       # number of WriteReq MSHR hits
system.cpu0.dcache.WriteReq_mshr_hits::total           26                       # number of WriteReq MSHR hits
system.cpu0.dcache.demand_mshr_hits::cpu0.data        25997                       # number of demand (read+write) MSHR hits
system.cpu0.dcache.demand_mshr_hits::total        25997                       # number of demand (read+write) MSHR hits
system.cpu0.dcache.overall_mshr_hits::cpu0.data        25997                       # number of overall MSHR hits
system.cpu0.dcache.overall_mshr_hits::total        25997                       # number of overall MSHR hits
system.cpu0.dcache.ReadReq_mshr_misses::cpu0.data        25363                       # number of ReadReq MSHR misses
system.cpu0.dcache.ReadReq_mshr_misses::total        25363                       # number of ReadReq MSHR misses
system.cpu0.dcache.WriteReq_mshr_misses::cpu0.data        20911                       # number of WriteReq MSHR misses
system.cpu0.dcache.WriteReq_mshr_misses::total        20911                       # number of WriteReq MSHR misses
system.cpu0.dcache.demand_mshr_misses::cpu0.data        46274                       # number of demand (read+write) MSHR misses
system.cpu0.dcache.demand_mshr_misses::total        46274                       # number of demand (read+write) MSHR misses
system.cpu0.dcache.overall_mshr_misses::cpu0.data        46274                       # number of overall MSHR misses
system.cpu0.dcache.overall_mshr_misses::total        46274                       # number of overall MSHR misses
system.cpu0.dcache.ReadReq_mshr_miss_latency::cpu0.data    206364429                       # number of ReadReq MSHR miss cycles
system.cpu0.dcache.ReadReq_mshr_miss_latency::total    206364429                       # number of ReadReq MSHR miss cycles
system.cpu0.dcache.WriteReq_mshr_miss_latency::cpu0.data    854456353                       # number of WriteReq MSHR miss cycles
system.cpu0.dcache.WriteReq_mshr_miss_latency::total    854456353                       # number of WriteReq MSHR miss cycles
system.cpu0.dcache.demand_mshr_miss_latency::cpu0.data   1060820782                       # number of demand (read+write) MSHR miss cycles
system.cpu0.dcache.demand_mshr_miss_latency::total   1060820782                       # number of demand (read+write) MSHR miss cycles
system.cpu0.dcache.overall_mshr_miss_latency::cpu0.data   1060820782                       # number of overall MSHR miss cycles
system.cpu0.dcache.overall_mshr_miss_latency::total   1060820782                       # number of overall MSHR miss cycles
system.cpu0.dcache.ReadReq_mshr_miss_rate::cpu0.data     0.009356                       # mshr miss rate for ReadReq accesses
system.cpu0.dcache.ReadReq_mshr_miss_rate::total     0.009356                       # mshr miss rate for ReadReq accesses
system.cpu0.dcache.WriteReq_mshr_miss_rate::cpu0.data     0.017478                       # mshr miss rate for WriteReq accesses
system.cpu0.dcache.WriteReq_mshr_miss_rate::total     0.017478                       # mshr miss rate for WriteReq accesses
system.cpu0.dcache.demand_mshr_miss_rate::cpu0.data     0.011843                       # mshr miss rate for demand accesses
system.cpu0.dcache.demand_mshr_miss_rate::total     0.011843                       # mshr miss rate for demand accesses
system.cpu0.dcache.overall_mshr_miss_rate::cpu0.data     0.011843                       # mshr miss rate for overall accesses
system.cpu0.dcache.overall_mshr_miss_rate::total     0.011843                       # mshr miss rate for overall accesses
system.cpu0.dcache.ReadReq_avg_mshr_miss_latency::cpu0.data  8136.436108                       # average ReadReq mshr miss latency
system.cpu0.dcache.ReadReq_avg_mshr_miss_latency::total  8136.436108                       # average ReadReq mshr miss latency
system.cpu0.dcache.WriteReq_avg_mshr_miss_latency::cpu0.data 40861.573000                       # average WriteReq mshr miss latency
system.cpu0.dcache.WriteReq_avg_mshr_miss_latency::total 40861.573000                       # average WriteReq mshr miss latency
system.cpu0.dcache.demand_avg_mshr_miss_latency::cpu0.data 22924.769460                       # average overall mshr miss latency
system.cpu0.dcache.demand_avg_mshr_miss_latency::total 22924.769460                       # average overall mshr miss latency
system.cpu0.dcache.overall_avg_mshr_miss_latency::cpu0.data 22924.769460                       # average overall mshr miss latency
system.cpu0.dcache.overall_avg_mshr_miss_latency::total 22924.769460                       # average overall mshr miss latency
system.cpu0.dtb_walker_cache.tags.pwrStateResidencyTicks::UNDEFINED   4804253271                       # Cumulative time (in ticks) in various power states
system.cpu0.dtb_walker_cache.tags.replacements            0                       # number of replacements
system.cpu0.dtb_walker_cache.tags.tagsinuse            0                       # Cycle average of tags in use
system.cpu0.dtb_walker_cache.tags.total_refs            0                       # Total number of references to valid blocks.
system.cpu0.dtb_walker_cache.tags.sampled_refs            0                       # Sample count of references to valid blocks.
system.cpu0.dtb_walker_cache.tags.avg_refs          nan                       # Average number of references to valid blocks.
system.cpu0.dtb_walker_cache.tags.warmup_cycle            0                       # Cycle when the warmup percentage was hit.
system.cpu0.dtb_walker_cache.tags.tag_accesses            0                       # Number of tag accesses
system.cpu0.dtb_walker_cache.tags.data_accesses            0                       # Number of data accesses
system.cpu0.dtb_walker_cache.pwrStateResidencyTicks::UNDEFINED   4804253271                       # Cumulative time (in ticks) in various power states
system.cpu0.dtb_walker_cache.blocked_cycles::no_mshrs            0                       # number of cycles access was blocked
system.cpu0.dtb_walker_cache.blocked_cycles::no_targets            0                       # number of cycles access was blocked
system.cpu0.dtb_walker_cache.blocked::no_mshrs            0                       # number of cycles access was blocked
system.cpu0.dtb_walker_cache.blocked::no_targets            0                       # number of cycles access was blocked
system.cpu0.dtb_walker_cache.avg_blocked_cycles::no_mshrs          nan                       # average number of cycles each access was blocked
system.cpu0.dtb_walker_cache.avg_blocked_cycles::no_targets          nan                       # average number of cycles each access was blocked
system.cpu0.icache.tags.pwrStateResidencyTicks::UNDEFINED   4804253271                       # Cumulative time (in ticks) in various power states
system.cpu0.icache.tags.replacements            12334                       # number of replacements
system.cpu0.icache.tags.tagsinuse          509.506784                       # Cycle average of tags in use
system.cpu0.icache.tags.total_refs            2259613                       # Total number of references to valid blocks.
system.cpu0.icache.tags.sampled_refs            12846                       # Sample count of references to valid blocks.
system.cpu0.icache.tags.avg_refs           175.900125                       # Average number of references to valid blocks.
system.cpu0.icache.tags.warmup_cycle            81252                       # Cycle when the warmup percentage was hit.
system.cpu0.icache.tags.occ_blocks::cpu0.inst   509.506784                       # Average occupied blocks per requestor
system.cpu0.icache.tags.occ_percent::cpu0.inst     0.995130                       # Average percentage of cache occupancy
system.cpu0.icache.tags.occ_percent::total     0.995130                       # Average percentage of cache occupancy
system.cpu0.icache.tags.occ_task_id_blocks::1024          512                       # Occupied blocks per task id
system.cpu0.icache.tags.age_task_id_blocks_1024::0           30                       # Occupied blocks per task id
system.cpu0.icache.tags.age_task_id_blocks_1024::1          176                       # Occupied blocks per task id
system.cpu0.icache.tags.age_task_id_blocks_1024::2          296                       # Occupied blocks per task id
system.cpu0.icache.tags.age_task_id_blocks_1024::3           10                       # Occupied blocks per task id
system.cpu0.icache.tags.occ_task_id_percent::1024            1                       # Percentage of cache occupancy per task id
system.cpu0.icache.tags.tag_accesses         18205172                       # Number of tag accesses
system.cpu0.icache.tags.data_accesses        18205172                       # Number of data accesses
system.cpu0.icache.pwrStateResidencyTicks::UNDEFINED   4804253271                       # Cumulative time (in ticks) in various power states
system.cpu0.icache.ReadReq_hits::cpu0.inst      2259635                       # number of ReadReq hits
system.cpu0.icache.ReadReq_hits::total        2259635                       # number of ReadReq hits
system.cpu0.icache.demand_hits::cpu0.inst      2259635                       # number of demand (read+write) hits
system.cpu0.icache.demand_hits::total         2259635                       # number of demand (read+write) hits
system.cpu0.icache.overall_hits::cpu0.inst      2259635                       # number of overall hits
system.cpu0.icache.overall_hits::total        2259635                       # number of overall hits
system.cpu0.icache.ReadReq_misses::cpu0.inst        14404                       # number of ReadReq misses
system.cpu0.icache.ReadReq_misses::total        14404                       # number of ReadReq misses
system.cpu0.icache.demand_misses::cpu0.inst        14404                       # number of demand (read+write) misses
system.cpu0.icache.demand_misses::total         14404                       # number of demand (read+write) misses
system.cpu0.icache.overall_misses::cpu0.inst        14404                       # number of overall misses
system.cpu0.icache.overall_misses::total        14404                       # number of overall misses
system.cpu0.icache.ReadReq_miss_latency::cpu0.inst    302081613                       # number of ReadReq miss cycles
system.cpu0.icache.ReadReq_miss_latency::total    302081613                       # number of ReadReq miss cycles
system.cpu0.icache.demand_miss_latency::cpu0.inst    302081613                       # number of demand (read+write) miss cycles
system.cpu0.icache.demand_miss_latency::total    302081613                       # number of demand (read+write) miss cycles
system.cpu0.icache.overall_miss_latency::cpu0.inst    302081613                       # number of overall miss cycles
system.cpu0.icache.overall_miss_latency::total    302081613                       # number of overall miss cycles
system.cpu0.icache.ReadReq_accesses::cpu0.inst      2274039                       # number of ReadReq accesses(hits+misses)
system.cpu0.icache.ReadReq_accesses::total      2274039                       # number of ReadReq accesses(hits+misses)
system.cpu0.icache.demand_accesses::cpu0.inst      2274039                       # number of demand (read+write) accesses
system.cpu0.icache.demand_accesses::total      2274039                       # number of demand (read+write) accesses
system.cpu0.icache.overall_accesses::cpu0.inst      2274039                       # number of overall (read+write) accesses
system.cpu0.icache.overall_accesses::total      2274039                       # number of overall (read+write) accesses
system.cpu0.icache.ReadReq_miss_rate::cpu0.inst     0.006334                       # miss rate for ReadReq accesses
system.cpu0.icache.ReadReq_miss_rate::total     0.006334                       # miss rate for ReadReq accesses
system.cpu0.icache.demand_miss_rate::cpu0.inst     0.006334                       # miss rate for demand accesses
system.cpu0.icache.demand_miss_rate::total     0.006334                       # miss rate for demand accesses
system.cpu0.icache.overall_miss_rate::cpu0.inst     0.006334                       # miss rate for overall accesses
system.cpu0.icache.overall_miss_rate::total     0.006334                       # miss rate for overall accesses
system.cpu0.icache.ReadReq_avg_miss_latency::cpu0.inst 20972.064218                       # average ReadReq miss latency
system.cpu0.icache.ReadReq_avg_miss_latency::total 20972.064218                       # average ReadReq miss latency
system.cpu0.icache.demand_avg_miss_latency::cpu0.inst 20972.064218                       # average overall miss latency
system.cpu0.icache.demand_avg_miss_latency::total 20972.064218                       # average overall miss latency
system.cpu0.icache.overall_avg_miss_latency::cpu0.inst 20972.064218                       # average overall miss latency
system.cpu0.icache.overall_avg_miss_latency::total 20972.064218                       # average overall miss latency
system.cpu0.icache.blocked_cycles::no_mshrs         2411                       # number of cycles access was blocked
system.cpu0.icache.blocked_cycles::no_targets            0                       # number of cycles access was blocked
system.cpu0.icache.blocked::no_mshrs               48                       # number of cycles access was blocked
system.cpu0.icache.blocked::no_targets              0                       # number of cycles access was blocked
system.cpu0.icache.avg_blocked_cycles::no_mshrs    50.229167                       # average number of cycles each access was blocked
system.cpu0.icache.avg_blocked_cycles::no_targets          nan                       # average number of cycles each access was blocked
system.cpu0.icache.writebacks::writebacks        12334                       # number of writebacks
system.cpu0.icache.writebacks::total            12334                       # number of writebacks
system.cpu0.icache.ReadReq_mshr_hits::cpu0.inst         1544                       # number of ReadReq MSHR hits
system.cpu0.icache.ReadReq_mshr_hits::total         1544                       # number of ReadReq MSHR hits
system.cpu0.icache.demand_mshr_hits::cpu0.inst         1544                       # number of demand (read+write) MSHR hits
system.cpu0.icache.demand_mshr_hits::total         1544                       # number of demand (read+write) MSHR hits
system.cpu0.icache.overall_mshr_hits::cpu0.inst         1544                       # number of overall MSHR hits
system.cpu0.icache.overall_mshr_hits::total         1544                       # number of overall MSHR hits
system.cpu0.icache.ReadReq_mshr_misses::cpu0.inst        12860                       # number of ReadReq MSHR misses
system.cpu0.icache.ReadReq_mshr_misses::total        12860                       # number of ReadReq MSHR misses
system.cpu0.icache.demand_mshr_misses::cpu0.inst        12860                       # number of demand (read+write) MSHR misses
system.cpu0.icache.demand_mshr_misses::total        12860                       # number of demand (read+write) MSHR misses
system.cpu0.icache.overall_mshr_misses::cpu0.inst        12860                       # number of overall MSHR misses
system.cpu0.icache.overall_mshr_misses::total        12860                       # number of overall MSHR misses
system.cpu0.icache.ReadReq_mshr_miss_latency::cpu0.inst    236431662                       # number of ReadReq MSHR miss cycles
system.cpu0.icache.ReadReq_mshr_miss_latency::total    236431662                       # number of ReadReq MSHR miss cycles
system.cpu0.icache.demand_mshr_miss_latency::cpu0.inst    236431662                       # number of demand (read+write) MSHR miss cycles
system.cpu0.icache.demand_mshr_miss_latency::total    236431662                       # number of demand (read+write) MSHR miss cycles
system.cpu0.icache.overall_mshr_miss_latency::cpu0.inst    236431662                       # number of overall MSHR miss cycles
system.cpu0.icache.overall_mshr_miss_latency::total    236431662                       # number of overall MSHR miss cycles
system.cpu0.icache.ReadReq_mshr_miss_rate::cpu0.inst     0.005655                       # mshr miss rate for ReadReq accesses
system.cpu0.icache.ReadReq_mshr_miss_rate::total     0.005655                       # mshr miss rate for ReadReq accesses
system.cpu0.icache.demand_mshr_miss_rate::cpu0.inst     0.005655                       # mshr miss rate for demand accesses
system.cpu0.icache.demand_mshr_miss_rate::total     0.005655                       # mshr miss rate for demand accesses
system.cpu0.icache.overall_mshr_miss_rate::cpu0.inst     0.005655                       # mshr miss rate for overall accesses
system.cpu0.icache.overall_mshr_miss_rate::total     0.005655                       # mshr miss rate for overall accesses
system.cpu0.icache.ReadReq_avg_mshr_miss_latency::cpu0.inst 18385.043701                       # average ReadReq mshr miss latency
system.cpu0.icache.ReadReq_avg_mshr_miss_latency::total 18385.043701                       # average ReadReq mshr miss latency
system.cpu0.icache.demand_avg_mshr_miss_latency::cpu0.inst 18385.043701                       # average overall mshr miss latency
system.cpu0.icache.demand_avg_mshr_miss_latency::total 18385.043701                       # average overall mshr miss latency
system.cpu0.icache.overall_avg_mshr_miss_latency::cpu0.inst 18385.043701                       # average overall mshr miss latency
system.cpu0.icache.overall_avg_mshr_miss_latency::total 18385.043701                       # average overall mshr miss latency
system.cpu0.itb_walker_cache.tags.pwrStateResidencyTicks::UNDEFINED   4804253271                       # Cumulative time (in ticks) in various power states
system.cpu0.itb_walker_cache.tags.replacements            0                       # number of replacements
system.cpu0.itb_walker_cache.tags.tagsinuse            0                       # Cycle average of tags in use
system.cpu0.itb_walker_cache.tags.total_refs            0                       # Total number of references to valid blocks.
system.cpu0.itb_walker_cache.tags.sampled_refs            0                       # Sample count of references to valid blocks.
system.cpu0.itb_walker_cache.tags.avg_refs          nan                       # Average number of references to valid blocks.
system.cpu0.itb_walker_cache.tags.warmup_cycle            0                       # Cycle when the warmup percentage was hit.
system.cpu0.itb_walker_cache.tags.tag_accesses            0                       # Number of tag accesses
system.cpu0.itb_walker_cache.tags.data_accesses            0                       # Number of data accesses
system.cpu0.itb_walker_cache.pwrStateResidencyTicks::UNDEFINED   4804253271                       # Cumulative time (in ticks) in various power states
system.cpu0.itb_walker_cache.blocked_cycles::no_mshrs            0                       # number of cycles access was blocked
system.cpu0.itb_walker_cache.blocked_cycles::no_targets            0                       # number of cycles access was blocked
system.cpu0.itb_walker_cache.blocked::no_mshrs            0                       # number of cycles access was blocked
system.cpu0.itb_walker_cache.blocked::no_targets            0                       # number of cycles access was blocked
system.cpu0.itb_walker_cache.avg_blocked_cycles::no_mshrs          nan                       # average number of cycles each access was blocked
system.cpu0.itb_walker_cache.avg_blocked_cycles::no_targets          nan                       # average number of cycles each access was blocked
system.cpu0.l2cache.tags.pwrStateResidencyTicks::UNDEFINED   4804253271                       # Cumulative time (in ticks) in various power states
system.cpu0.l2cache.tags.replacements           22835                       # number of replacements
system.cpu0.l2cache.tags.tagsinuse        3992.158159                       # Cycle average of tags in use
system.cpu0.l2cache.tags.total_refs             89013                       # Total number of references to valid blocks.
system.cpu0.l2cache.tags.sampled_refs           26931                       # Sample count of references to valid blocks.
system.cpu0.l2cache.tags.avg_refs            3.305224                       # Average number of references to valid blocks.
system.cpu0.l2cache.tags.warmup_cycle           78000                       # Cycle when the warmup percentage was hit.
system.cpu0.l2cache.tags.occ_blocks::writebacks   261.519449                       # Average occupied blocks per requestor
system.cpu0.l2cache.tags.occ_blocks::cpu0.inst   415.973936                       # Average occupied blocks per requestor
system.cpu0.l2cache.tags.occ_blocks::cpu0.data  3314.664773                       # Average occupied blocks per requestor
system.cpu0.l2cache.tags.occ_percent::writebacks     0.063848                       # Average percentage of cache occupancy
system.cpu0.l2cache.tags.occ_percent::cpu0.inst     0.101556                       # Average percentage of cache occupancy
system.cpu0.l2cache.tags.occ_percent::cpu0.data     0.809244                       # Average percentage of cache occupancy
system.cpu0.l2cache.tags.occ_percent::total     0.974648                       # Average percentage of cache occupancy
system.cpu0.l2cache.tags.occ_task_id_blocks::1024         4096                       # Occupied blocks per task id
system.cpu0.l2cache.tags.age_task_id_blocks_1024::0          254                       # Occupied blocks per task id
system.cpu0.l2cache.tags.age_task_id_blocks_1024::1         1404                       # Occupied blocks per task id
system.cpu0.l2cache.tags.age_task_id_blocks_1024::2         2061                       # Occupied blocks per task id
system.cpu0.l2cache.tags.age_task_id_blocks_1024::3          377                       # Occupied blocks per task id
system.cpu0.l2cache.tags.occ_task_id_percent::1024            1                       # Percentage of cache occupancy per task id
system.cpu0.l2cache.tags.tag_accesses          491095                       # Number of tag accesses
system.cpu0.l2cache.tags.data_accesses         491095                       # Number of data accesses
system.cpu0.l2cache.pwrStateResidencyTicks::UNDEFINED   4804253271                       # Cumulative time (in ticks) in various power states
system.cpu0.l2cache.WritebackDirty_hits::writebacks        38963                       # number of WritebackDirty hits
system.cpu0.l2cache.WritebackDirty_hits::total        38963                       # number of WritebackDirty hits
system.cpu0.l2cache.WritebackClean_hits::writebacks        12300                       # number of WritebackClean hits
system.cpu0.l2cache.WritebackClean_hits::total        12300                       # number of WritebackClean hits
system.cpu0.l2cache.UpgradeReq_hits::cpu0.data         1130                       # number of UpgradeReq hits
system.cpu0.l2cache.UpgradeReq_hits::total         1130                       # number of UpgradeReq hits
system.cpu0.l2cache.ReadExReq_hits::cpu0.data         3979                       # number of ReadExReq hits
system.cpu0.l2cache.ReadExReq_hits::total         3979                       # number of ReadExReq hits
system.cpu0.l2cache.ReadCleanReq_hits::cpu0.inst         9478                       # number of ReadCleanReq hits
system.cpu0.l2cache.ReadCleanReq_hits::total         9478                       # number of ReadCleanReq hits
system.cpu0.l2cache.ReadSharedReq_hits::cpu0.data        19721                       # number of ReadSharedReq hits
system.cpu0.l2cache.ReadSharedReq_hits::total        19721                       # number of ReadSharedReq hits
system.cpu0.l2cache.demand_hits::cpu0.inst         9478                       # number of demand (read+write) hits
system.cpu0.l2cache.demand_hits::cpu0.data        23700                       # number of demand (read+write) hits
system.cpu0.l2cache.demand_hits::total          33178                       # number of demand (read+write) hits
system.cpu0.l2cache.overall_hits::cpu0.inst         9478                       # number of overall hits
system.cpu0.l2cache.overall_hits::cpu0.data        23700                       # number of overall hits
system.cpu0.l2cache.overall_hits::total         33178                       # number of overall hits
system.cpu0.l2cache.UpgradeReq_misses::cpu0.data            2                       # number of UpgradeReq misses
system.cpu0.l2cache.UpgradeReq_misses::total            2                       # number of UpgradeReq misses
[...]
system.l3.demand_mshr_miss_latency::cpu1.inst    144959842                       # number of demand (read+write) MSHR miss cycles
system.l3.demand_mshr_miss_latency::cpu1.data    616479973                       # number of demand (read+write) MSHR miss cycles
system.l3.demand_mshr_miss_latency::cpu2.inst    145584534                       # number of demand (read+write) MSHR miss cycles
system.l3.demand_mshr_miss_latency::cpu2.data    648571856                       # number of demand (read+write) MSHR miss cycles
system.l3.demand_mshr_miss_latency::cpu3.inst    149895508                       # number of demand (read+write) MSHR miss cycles
system.l3.demand_mshr_miss_latency::cpu3.data    567210329                       # number of demand (read+write) MSHR miss cycles
system.l3.demand_mshr_miss_latency::total   3038012762                       # number of demand (read+write) MSHR miss cycles
system.l3.overall_mshr_miss_latency::cpu0.inst    144923402                       # number of overall MSHR miss cycles
system.l3.overall_mshr_miss_latency::cpu0.data    620387318                       # number of overall MSHR miss cycles
system.l3.overall_mshr_miss_latency::cpu1.inst    144959842                       # number of overall MSHR miss cycles
system.l3.overall_mshr_miss_latency::cpu1.data    616479973                       # number of overall MSHR miss cycles
system.l3.overall_mshr_miss_latency::cpu2.inst    145584534                       # number of overall MSHR miss cycles
system.l3.overall_mshr_miss_latency::cpu2.data    648571856                       # number of overall MSHR miss cycles
system.l3.overall_mshr_miss_latency::cpu3.inst    149895508                       # number of overall MSHR miss cycles
system.l3.overall_mshr_miss_latency::cpu3.data    567210329                       # number of overall MSHR miss cycles
system.l3.overall_mshr_miss_latency::total   3038012762                       # number of overall MSHR miss cycles
system.l3.ReadExReq_mshr_miss_rate::cpu0.data     0.744274                       # mshr miss rate for ReadExReq accesses
system.l3.ReadExReq_mshr_miss_rate::cpu1.data     0.746745                       # mshr miss rate for ReadExReq accesses
system.l3.ReadExReq_mshr_miss_rate::cpu2.data     0.747979                       # mshr miss rate for ReadExReq accesses
system.l3.ReadExReq_mshr_miss_rate::cpu3.data     0.724653                       # mshr miss rate for ReadExReq accesses
system.l3.ReadExReq_mshr_miss_rate::total     0.740658                       # mshr miss rate for ReadExReq accesses
system.l3.ReadSharedReq_mshr_miss_rate::cpu0.inst     0.852522                       # mshr miss rate for ReadSharedReq accesses
system.l3.ReadSharedReq_mshr_miss_rate::cpu0.data     0.092005                       # mshr miss rate for ReadSharedReq accesses
system.l3.ReadSharedReq_mshr_miss_rate::cpu1.inst     0.851709                       # mshr miss rate for ReadSharedReq accesses
system.l3.ReadSharedReq_mshr_miss_rate::cpu1.data     0.091432                       # mshr miss rate for ReadSharedReq accesses
system.l3.ReadSharedReq_mshr_miss_rate::cpu2.inst     0.848682                       # mshr miss rate for ReadSharedReq accesses
system.l3.ReadSharedReq_mshr_miss_rate::cpu2.data     0.109352                       # mshr miss rate for ReadSharedReq accesses
system.l3.ReadSharedReq_mshr_miss_rate::cpu3.inst     0.853272                       # mshr miss rate for ReadSharedReq accesses
system.l3.ReadSharedReq_mshr_miss_rate::cpu3.data     0.086330                       # mshr miss rate for ReadSharedReq accesses
system.l3.ReadSharedReq_mshr_miss_rate::total     0.383341                       # mshr miss rate for ReadSharedReq accesses
system.l3.demand_mshr_miss_rate::cpu0.inst     0.852522                       # mshr miss rate for demand accesses
system.l3.demand_mshr_miss_rate::cpu0.data     0.572714                       # mshr miss rate for demand accesses
system.l3.demand_mshr_miss_rate::cpu1.inst     0.851709                       # mshr miss rate for demand accesses
system.l3.demand_mshr_miss_rate::cpu1.data     0.574947                       # mshr miss rate for demand accesses
system.l3.demand_mshr_miss_rate::cpu2.inst     0.848682                       # mshr miss rate for demand accesses
system.l3.demand_mshr_miss_rate::cpu2.data     0.599124                       # mshr miss rate for demand accesses
system.l3.demand_mshr_miss_rate::cpu3.inst     0.853272                       # mshr miss rate for demand accesses
system.l3.demand_mshr_miss_rate::cpu3.data     0.554904                       # mshr miss rate for demand accesses
system.l3.demand_mshr_miss_rate::total       0.612671                       # mshr miss rate for demand accesses
system.l3.overall_mshr_miss_rate::cpu0.inst     0.852522                       # mshr miss rate for overall accesses
system.l3.overall_mshr_miss_rate::cpu0.data     0.572714                       # mshr miss rate for overall accesses
system.l3.overall_mshr_miss_rate::cpu1.inst     0.851709                       # mshr miss rate for overall accesses
system.l3.overall_mshr_miss_rate::cpu1.data     0.574947                       # mshr miss rate for overall accesses
system.l3.overall_mshr_miss_rate::cpu2.inst     0.848682                       # mshr miss rate for overall accesses
system.l3.overall_mshr_miss_rate::cpu2.data     0.599124                       # mshr miss rate for overall accesses
system.l3.overall_mshr_miss_rate::cpu3.inst     0.853272                       # mshr miss rate for overall accesses
system.l3.overall_mshr_miss_rate::cpu3.data     0.554904                       # mshr miss rate for overall accesses
system.l3.overall_mshr_miss_rate::total      0.612671                       # mshr miss rate for overall accesses
system.l3.ReadExReq_avg_mshr_miss_latency::cpu0.data 50041.902414                       # average ReadExReq mshr miss latency
system.l3.ReadExReq_avg_mshr_miss_latency::cpu1.data 50156.455726                       # average ReadExReq mshr miss latency
system.l3.ReadExReq_avg_mshr_miss_latency::cpu2.data 52855.746526                       # average ReadExReq mshr miss latency
system.l3.ReadExReq_avg_mshr_miss_latency::cpu3.data 44443.208002                       # average ReadExReq mshr miss latency
system.l3.ReadExReq_avg_mshr_miss_latency::total 49333.266347                       # average ReadExReq mshr miss latency
system.l3.ReadSharedReq_avg_mshr_miss_latency::cpu0.inst 50443.230769                       # average ReadSharedReq mshr miss latency
system.l3.ReadSharedReq_avg_mshr_miss_latency::cpu0.data 61068.165703                       # average ReadSharedReq mshr miss latency
system.l3.ReadSharedReq_avg_mshr_miss_latency::cpu1.inst 50579.149337                       # average ReadSharedReq mshr miss latency
system.l3.ReadSharedReq_avg_mshr_miss_latency::cpu1.data 58250.375246                       # average ReadSharedReq mshr miss latency
system.l3.ReadSharedReq_avg_mshr_miss_latency::cpu2.inst 50797.115841                       # average ReadSharedReq mshr miss latency
system.l3.ReadSharedReq_avg_mshr_miss_latency::cpu2.data 62508.808880                       # average ReadSharedReq mshr miss latency
system.l3.ReadSharedReq_avg_mshr_miss_latency::cpu3.inst 50640.374324                       # average ReadSharedReq mshr miss latency
system.l3.ReadSharedReq_avg_mshr_miss_latency::cpu3.data 58909.639155                       # average ReadSharedReq mshr miss latency
system.l3.ReadSharedReq_avg_mshr_miss_latency::total 52067.091403                       # average ReadSharedReq mshr miss latency
system.l3.demand_avg_mshr_miss_latency::cpu0.inst 50443.230769                       # average overall mshr miss latency
system.l3.demand_avg_mshr_miss_latency::cpu0.data 50507.800863                       # average overall mshr miss latency
system.l3.demand_avg_mshr_miss_latency::cpu1.inst 50579.149337                       # average overall mshr miss latency
system.l3.demand_avg_mshr_miss_latency::cpu1.data 50493.895733                       # average overall mshr miss latency
system.l3.demand_avg_mshr_miss_latency::cpu2.inst 50797.115841                       # average overall mshr miss latency
system.l3.demand_avg_mshr_miss_latency::cpu2.data 53266.413929                       # average overall mshr miss latency
system.l3.demand_avg_mshr_miss_latency::cpu3.inst 50640.374324                       # average overall mshr miss latency
system.l3.demand_avg_mshr_miss_latency::cpu3.data 45041.715953                       # average overall mshr miss latency
system.l3.demand_avg_mshr_miss_latency::total 49945.956696                       # average overall mshr miss latency
system.l3.overall_avg_mshr_miss_latency::cpu0.inst 50443.230769                       # average overall mshr miss latency
system.l3.overall_avg_mshr_miss_latency::cpu0.data 50507.800863                       # average overall mshr miss latency
system.l3.overall_avg_mshr_miss_latency::cpu1.inst 50579.149337                       # average overall mshr miss latency
system.l3.overall_avg_mshr_miss_latency::cpu1.data 50493.895733                       # average overall mshr miss latency
system.l3.overall_avg_mshr_miss_latency::cpu2.inst 50797.115841                       # average overall mshr miss latency
system.l3.overall_avg_mshr_miss_latency::cpu2.data 53266.413929                       # average overall mshr miss latency
system.l3.overall_avg_mshr_miss_latency::cpu3.inst 50640.374324                       # average overall mshr miss latency
system.l3.overall_avg_mshr_miss_latency::cpu3.data 45041.715953                       # average overall mshr miss latency
system.l3.overall_avg_mshr_miss_latency::total 49945.956696                       # average overall mshr miss latency
system.membus.snoop_filter.tot_requests         60826                       # Total number of requests made to the snoop filter.
system.membus.snoop_filter.hit_single_requests            0                       # Number of requests hitting in the snoop filter with a single holder of the requested data.
system.membus.snoop_filter.hit_multi_requests            0                       # Number of requests hitting in the snoop filter with multiple (>1) holders of the requested data.
system.membus.snoop_filter.tot_snoops               0                       # Total number of snoops made to the snoop filter.
system.membus.snoop_filter.hit_single_snoops            0                       # Number of snoops hitting in the snoop filter with a single holder of the requested data.
system.membus.snoop_filter.hit_multi_snoops            0                       # Number of snoops hitting in the snoop filter with multiple (>1) holders of the requested data.
system.membus.pwrStateResidencyTicks::UNDEFINED   4804253271                       # Cumulative time (in ticks) in various power states
system.membus.trans_dist::ReadResp              13632                       # Transaction distribution
system.membus.trans_dist::ReadExReq             47194                       # Transaction distribution
system.membus.trans_dist::ReadExResp            47192                       # Transaction distribution
system.membus.trans_dist::ReadSharedReq         13632                       # Transaction distribution
system.membus.pkt_count_system.l3.mem_side::system.mem_ctrls.port       121650                       # Packet count per connected master and slave (bytes)
system.membus.pkt_count_system.l3.mem_side::total       121650                       # Packet count per connected master and slave (bytes)
system.membus.pkt_count::total                 121650                       # Packet count per connected master and slave (bytes)
system.membus.pkt_size_system.l3.mem_side::system.mem_ctrls.port      3892736                       # Cumulative packet size per connected master and slave (bytes)
system.membus.pkt_size_system.l3.mem_side::total      3892736                       # Cumulative packet size per connected master and slave (bytes)
system.membus.pkt_size::total                 3892736                       # Cumulative packet size per connected master and slave (bytes)
system.membus.snoops                                0                       # Total snoops (count)
system.membus.snoopTraffic                          0                       # Total snoop traffic (bytes)
system.membus.snoop_fanout::samples             60826                       # Request fanout histogram
system.membus.snoop_fanout::mean                    0                       # Request fanout histogram
system.membus.snoop_fanout::stdev                   0                       # Request fanout histogram
system.membus.snoop_fanout::underflows              0      0.00%      0.00% # Request fanout histogram
system.membus.snoop_fanout::0                   60826    100.00%    100.00% # Request fanout histogram
system.membus.snoop_fanout::1                       0      0.00%    100.00% # Request fanout histogram
system.membus.snoop_fanout::overflows               0      0.00%    100.00% # Request fanout histogram
system.membus.snoop_fanout::min_value               0                       # Request fanout histogram
system.membus.snoop_fanout::max_value               0                       # Request fanout histogram
system.membus.snoop_fanout::total               60826                       # Request fanout histogram
system.membus.reqLayer8.occupancy            79279798                       # Layer occupancy (ticks)
system.membus.reqLayer8.utilization               1.7                       # Layer utilization (%)
system.membus.respLayer1.occupancy          329963105                       # Layer occupancy (ticks)
system.membus.respLayer1.utilization              6.9                       # Layer utilization (%)
system.tol3bus.snoop_filter.tot_requests       181019                       # Total number of requests made to the snoop filter.
system.tol3bus.snoop_filter.hit_single_requests        81756                       # Number of requests hitting in the snoop filter with a single holder of the requested data.
system.tol3bus.snoop_filter.hit_multi_requests            0                       # Number of requests hitting in the snoop filter with multiple (>1) holders of the requested data.
system.tol3bus.snoop_filter.tot_snoops              0                       # Total number of snoops made to the snoop filter.
system.tol3bus.snoop_filter.hit_single_snoops            0                       # Number of snoops hitting in the snoop filter with a single holder of the requested data.
system.tol3bus.snoop_filter.hit_multi_snoops            0                       # Number of snoops hitting in the snoop filter with multiple (>1) holders of the requested data.
system.tol3bus.pwrStateResidencyTicks::UNDEFINED   4804253271                       # Cumulative time (in ticks) in various power states
system.tol3bus.trans_dist::ReadResp             35561                       # Transaction distribution
system.tol3bus.trans_dist::WritebackDirty        68887                       # Transaction distribution
system.tol3bus.trans_dist::CleanEvict           12849                       # Transaction distribution
system.tol3bus.trans_dist::UpgradeReq               3                       # Transaction distribution
system.tol3bus.trans_dist::UpgradeResp              3                       # Transaction distribution
system.tol3bus.trans_dist::ReadExReq            63719                       # Transaction distribution
system.tol3bus.trans_dist::ReadExResp           63717                       # Transaction distribution
system.tol3bus.trans_dist::ReadSharedReq        35561                       # Transaction distribution
system.tol3bus.pkt_count_system.cpu0.l2cache.mem_side::system.l3.cpu_side        70074                       # Packet count per connected master and slave (bytes)
system.tol3bus.pkt_count_system.cpu1.l2cache.mem_side::system.l3.cpu_side        69401                       # Packet count per connected master and slave (bytes)
system.tol3bus.pkt_count_system.cpu2.l2cache.mem_side::system.l3.cpu_side        66711                       # Packet count per connected master and slave (bytes)
system.tol3bus.pkt_count_system.cpu3.l2cache.mem_side::system.l3.cpu_side        74114                       # Packet count per connected master and slave (bytes)
system.tol3bus.pkt_count::total                280300                       # Packet count per connected master and slave (bytes)
system.tol3bus.pkt_size_system.cpu0.l2cache.mem_side::system.l3.cpu_side      2692160                       # Cumulative packet size per connected master and slave (bytes)
system.tol3bus.pkt_size_system.cpu1.l2cache.mem_side::system.l3.cpu_side      2665152                       # Cumulative packet size per connected master and slave (bytes)
system.tol3bus.pkt_size_system.cpu2.l2cache.mem_side::system.l3.cpu_side      2547776                       # Cumulative packet size per connected master and slave (bytes)
system.tol3bus.pkt_size_system.cpu3.l2cache.mem_side::system.l3.cpu_side      2857472                       # Cumulative packet size per connected master and slave (bytes)
system.tol3bus.pkt_size::total               10762560                       # Cumulative packet size per connected master and slave (bytes)
system.tol3bus.snoops                               0                       # Total snoops (count)
system.tol3bus.snoopTraffic                         0                       # Total snoop traffic (bytes)
system.tol3bus.snoop_fanout::samples            99283                       # Request fanout histogram
system.tol3bus.snoop_fanout::mean                   0                       # Request fanout histogram
system.tol3bus.snoop_fanout::stdev                  0                       # Request fanout histogram
system.tol3bus.snoop_fanout::underflows             0      0.00%      0.00% # Request fanout histogram
system.tol3bus.snoop_fanout::0                  99283    100.00%    100.00% # Request fanout histogram
system.tol3bus.snoop_fanout::1                      0      0.00%    100.00% # Request fanout histogram
system.tol3bus.snoop_fanout::2                      0      0.00%    100.00% # Request fanout histogram
system.tol3bus.snoop_fanout::3                      0      0.00%    100.00% # Request fanout histogram
system.tol3bus.snoop_fanout::4                      0      0.00%    100.00% # Request fanout histogram
system.tol3bus.snoop_fanout::overflows              0      0.00%    100.00% # Request fanout histogram
system.tol3bus.snoop_fanout::min_value              0                       # Request fanout histogram
system.tol3bus.snoop_fanout::max_value              0                       # Request fanout histogram
system.tol3bus.snoop_fanout::total              99283                       # Request fanout histogram
system.tol3bus.reqLayer0.occupancy          368479043                       # Layer occupancy (ticks)
system.tol3bus.reqLayer0.utilization              7.7                       # Layer utilization (%)
system.tol3bus.respLayer0.occupancy          79700681                       # Layer occupancy (ticks)
system.tol3bus.respLayer0.utilization             1.7                       # Layer utilization (%)
system.tol3bus.respLayer1.occupancy          78966196                       # Layer occupancy (ticks)
system.tol3bus.respLayer1.utilization             1.6                       # Layer utilization (%)
system.tol3bus.respLayer2.occupancy          76160575                       # Layer occupancy (ticks)
system.tol3bus.respLayer2.utilization             1.6                       # Layer utilization (%)
system.tol3bus.respLayer3.occupancy          84155334                       # Layer occupancy (ticks)
system.tol3bus.respLayer3.utilization             1.8                       # Layer utilization (%)

---------- End Simulation Statistics   ----------
