
---------- Begin Simulation Statistics ----------
sim_seconds                                  0.001630                       # Number of seconds simulated
sim_ticks                                  1630162539                       # Number of ticks simulated
final_tick                                 1630162539                       # Number of ticks from beginning of simulation (restored from checkpoints and never reset)
sim_freq                                 1000000000000                       # Frequency of simulated ticks
host_inst_rate                                 263454                       # Simulator instruction rate (inst/s)
host_op_rate                                   429890                       # Simulator op (including micro ops) rate (op/s)
host_tick_rate                               10749413                       # Simulator tick rate (ticks/s)
host_mem_usage                               33815400                       # Number of bytes of host memory used
host_seconds                                   151.65                       # Real time elapsed on the host
sim_insts                                    39953134                       # Number of instructions simulated
sim_ops                                      65193407                       # Number of ops (including micro ops) simulated
system.voltage_domain.voltage                       1                       # Voltage in Volts
system.clk_domain.clock                          1000                       # Clock period in ticks
system.mem_ctrls.pwrStateResidencyTicks::UNDEFINED   1630162539                       # Cumulative time (in ticks) in various power states
system.mem_ctrls.bytes_read::cpu0.inst          50112                       # Number of bytes read from this memory
system.mem_ctrls.bytes_read::cpu0.data          82048                       # Number of bytes read from this memory
system.mem_ctrls.bytes_read::cpu1.inst          49856                       # Number of bytes read from this memory
system.mem_ctrls.bytes_read::cpu1.data          81984                       # Number of bytes read from this memory
system.mem_ctrls.bytes_read::cpu2.inst          50368                       # Number of bytes read from this memory
system.mem_ctrls.bytes_read::cpu2.data          82048                       # Number of bytes read from this memory
system.mem_ctrls.bytes_read::cpu3.inst          50048                       # Number of bytes read from this memory
system.mem_ctrls.bytes_read::cpu3.data          81920                       # Number of bytes read from this memory
system.mem_ctrls.bytes_read::total             528384                       # Number of bytes read from this memory
system.mem_ctrls.bytes_inst_read::cpu0.inst        50112                       # Number of instructions bytes read from this memory
system.mem_ctrls.bytes_inst_read::cpu1.inst        49856                       # Number of instructions bytes read from this memory
system.mem_ctrls.bytes_inst_read::cpu2.inst        50368                       # Number of instructions bytes read from this memory
system.mem_ctrls.bytes_inst_read::cpu3.inst        50048                       # Number of instructions bytes read from this memory
system.mem_ctrls.bytes_inst_read::total        200384                       # Number of instructions bytes read from this memory
system.mem_ctrls.num_reads::cpu0.inst             783                       # Number of read requests responded to by this memory
system.mem_ctrls.num_reads::cpu0.data            1282                       # Number of read requests responded to by this memory
system.mem_ctrls.num_reads::cpu1.inst             779                       # Number of read requests responded to by this memory
system.mem_ctrls.num_reads::cpu1.data            1281                       # Number of read requests responded to by this memory
system.mem_ctrls.num_reads::cpu2.inst             787                       # Number of read requests responded to by this memory
system.mem_ctrls.num_reads::cpu2.data            1282                       # Number of read requests responded to by this memory
system.mem_ctrls.num_reads::cpu3.inst             782                       # Number of read requests responded to by this memory
system.mem_ctrls.num_reads::cpu3.data            1280                       # Number of read requests responded to by this memory
system.mem_ctrls.num_reads::total                8256                       # Number of read requests responded to by this memory
system.mem_ctrls.bw_read::cpu0.inst          30740493                       # Total read bandwidth from this memory (bytes/s)
system.mem_ctrls.bw_read::cpu0.data          50331177                       # Total read bandwidth from this memory (bytes/s)
system.mem_ctrls.bw_read::cpu1.inst          30583453                       # Total read bandwidth from this memory (bytes/s)
system.mem_ctrls.bw_read::cpu1.data          50291918                       # Total read bandwidth from this memory (bytes/s)
system.mem_ctrls.bw_read::cpu2.inst          30897532                       # Total read bandwidth from this memory (bytes/s)
system.mem_ctrls.bw_read::cpu2.data          50331177                       # Total read bandwidth from this memory (bytes/s)
system.mem_ctrls.bw_read::cpu3.inst          30701233                       # Total read bandwidth from this memory (bytes/s)
system.mem_ctrls.bw_read::cpu3.data          50252658                       # Total read bandwidth from this memory (bytes/s)
system.mem_ctrls.bw_read::total             324129642                       # Total read bandwidth from this memory (bytes/s)
system.mem_ctrls.bw_inst_read::cpu0.inst     30740493                       # Instruction read bandwidth from this memory (bytes/s)
system.mem_ctrls.bw_inst_read::cpu1.inst     30583453                       # Instruction read bandwidth from this memory (bytes/s)
system.mem_ctrls.bw_inst_read::cpu2.inst     30897532                       # Instruction read bandwidth from this memory (bytes/s)
system.mem_ctrls.bw_inst_read::cpu3.inst     30701233                       # Instruction read bandwidth from this memory (bytes/s)
system.mem_ctrls.bw_inst_read::total        122922712                       # Instruction read bandwidth from this memory (bytes/s)
system.mem_ctrls.bw_total::cpu0.inst         30740493                       # Total bandwidth to/from this memory (bytes/s)
system.mem_ctrls.bw_total::cpu0.data         50331177                       # Total bandwidth to/from this memory (bytes/s)
system.mem_ctrls.bw_total::cpu1.inst         30583453                       # Total bandwidth to/from this memory (bytes/s)
system.mem_ctrls.bw_total::cpu1.data         50291918                       # Total bandwidth to/from this memory (bytes/s)
system.mem_ctrls.bw_total::cpu2.inst         30897532                       # Total bandwidth to/from this memory (bytes/s)
system.mem_ctrls.bw_total::cpu2.data         50331177                       # Total bandwidth to/from this memory (bytes/s)
system.mem_ctrls.bw_total::cpu3.inst         30701233                       # Total bandwidth to/from this memory (bytes/s)
system.mem_ctrls.bw_total::cpu3.data         50252658                       # Total bandwidth to/from this memory (bytes/s)
system.mem_ctrls.bw_total::total            324129642                       # Total bandwidth to/from this memory (bytes/s)
system.pwrStateResidencyTicks::UNDEFINED   1630162539                       # Cumulative time (in ticks) in various power states
system.cpu0.branchPred.lookups                2029638                       # Number of BP lookups
system.cpu0.branchPred.condPredicted          2029638                       # Number of conditional branches predicted
system.cpu0.branchPred.condIncorrect             4414                       # Number of conditional branches incorrect
system.cpu0.branchPred.BTBLookups             1978585                       # Number of BTB lookups
system.cpu0.branchPred.BTBHits                      0                       # Number of BTB hits
system.cpu0.branchPred.BTBCorrect                   0                       # Number of correct BTB predictions (this stat may not work properly.
system.cpu0.branchPred.BTBHitPct             0.000000                       # BTB Hit Percentage
system.cpu0.branchPred.usedRAS                  19810                       # Number of times the RAS was used to get a target.
system.cpu0.branchPred.RASInCorrect               813                       # Number of incorrect RAS predictions.
system.cpu0.branchPred.indirectLookups        1978585                       # Number of indirect predictor lookups.
system.cpu0.branchPred.indirectHits           1795747                       # Number of indirect target hits.
system.cpu0.branchPred.indirectMisses          182838                       # Number of indirect misses.
system.cpu0.branchPredindirectMispredicted         2565                       # Number of mispredicted indirect branches.
system.cpu_voltage_domain.voltage                   1                       # Voltage in Volts
system.cpu_clk_domain.clock                       333                       # Clock period in ticks
system.cpu0.dtb.walker.pwrStateResidencyTicks::UNDEFINED   1630162539                       # Cumulative time (in ticks) in various power states
system.cpu0.dtb.rdAccesses                    1340752                       # TLB accesses on read requests
system.cpu0.dtb.wrAccesses                     644304                       # TLB accesses on write requests
system.cpu0.dtb.rdMisses                          228                       # TLB misses on read requests
system.cpu0.dtb.wrMisses                           77                       # TLB misses on write requests
system.cpu0.apic_clk_domain.clock                5328                       # Clock period in ticks
system.cpu0.interrupts.pwrStateResidencyTicks::UNDEFINED   1630162539                       # Cumulative time (in ticks) in various power states
system.cpu0.itb.walker.pwrStateResidencyTicks::UNDEFINED   1630162539                       # Cumulative time (in ticks) in various power states
system.cpu0.itb.rdAccesses                          0                       # TLB accesses on read requests
system.cpu0.itb.wrAccesses                    1263985                       # TLB accesses on write requests
system.cpu0.itb.rdMisses                            0                       # TLB misses on read requests
system.cpu0.itb.wrMisses                          141                       # TLB misses on write requests
system.cpu0.workload.numSyscalls                   11                       # Number of system calls
system.cpu0.pwrStateResidencyTicks::ON     1630162539                       # Cumulative time (in ticks) in various power states
system.cpu0.numCycles                         4895384                       # number of cpu cycles simulated
system.cpu0.numWorkItemsStarted                     0                       # number of work items this cpu started
system.cpu0.numWorkItemsCompleted                   0                       # number of work items this cpu completed
system.cpu0.fetch.icacheStallCycles           1288585                       # Number of cycles fetch is stalled on an Icache miss
system.cpu0.fetch.Insts                      10082460                       # Number of instructions fetch has processed
system.cpu0.fetch.Branches                    2029638                       # Number of branches that fetch encountered
system.cpu0.fetch.predictedBranches           1815557                       # Number of branches that fetch has predicted taken
system.cpu0.fetch.Cycles                      3535066                       # Number of cycles fetch has run and was not squashing or blocked
system.cpu0.fetch.SquashCycles                   9070                       # Number of cycles fetch has spent squashing
system.cpu0.fetch.MiscStallCycles                 122                       # Number of cycles fetch has spent waiting on interrupts, or bad addresses, or out of MSHRs
system.cpu0.fetch.PendingTrapStallCycles          407                       # Number of stall cycles due to pending traps
system.cpu0.fetch.PendingQuiesceStallCycles            7                       # Number of stall cycles due to pending quiesce instructions
system.cpu0.fetch.IcacheWaitRetryStallCycles           58                       # Number of stall cycles due to full MSHR
system.cpu0.fetch.CacheLines                  1263896                       # Number of cache lines fetched
system.cpu0.fetch.IcacheSquashes                 1585                       # Number of outstanding Icache misses that were squashed
system.cpu0.fetch.rateDist::samples           4828780                       # Number of instructions fetched each cycle (Total)
system.cpu0.fetch.rateDist::mean             3.412655                       # Number of instructions fetched each cycle (Total)
system.cpu0.fetch.rateDist::stdev            2.972254                       # Number of instructions fetched each cycle (Total)
system.cpu0.fetch.rateDist::underflows              0      0.00%      0.00% # Number of instructions fetched each cycle (Total)
system.cpu0.fetch.rateDist::0                 1669847     34.58%     34.58% # Number of instructions fetched each cycle (Total)
system.cpu0.fetch.rateDist::1                   17235      0.36%     34.94% # Number of instructions fetched each cycle (Total)
system.cpu0.fetch.rateDist::2                  321773      6.66%     41.60% # Number of instructions fetched each cycle (Total)
system.cpu0.fetch.rateDist::3                  598260     12.39%     53.99% # Number of instructions fetched each cycle (Total)
system.cpu0.fetch.rateDist::4                   41479      0.86%     54.85% # Number of instructions fetched each cycle (Total)
system.cpu0.fetch.rateDist::5                  775216     16.05%     70.90% # Number of instructions fetched each cycle (Total)
system.cpu0.fetch.rateDist::6                  560194     11.60%     82.51% # Number of instructions fetched each cycle (Total)
system.cpu0.fetch.rateDist::7                  137968      2.86%     85.36% # Number of instructions fetched each cycle (Total)
system.cpu0.fetch.rateDist::8                  706808     14.64%    100.00% # Number of instructions fetched each cycle (Total)
system.cpu0.fetch.rateDist::overflows               0      0.00%    100.00% # Number of instructions fetched each cycle (Total)
system.cpu0.fetch.rateDist::min_value               0                       # Number of instructions fetched each cycle (Total)
system.cpu0.fetch.rateDist::max_value               8                       # Number of instructions fetched each cycle (Total)
system.cpu0.fetch.rateDist::total             4828780                       # Number of instructions fetched each cycle (Total)
system.cpu0.fetch.branchRate                 0.414602                       # Number of branch fetches per cycle
system.cpu0.fetch.rate                       2.059585                       # Number of inst fetches per cycle
system.cpu0.decode.IdleCycles                 1280965                       # Number of cycles decode is idle
system.cpu0.decode.BlockedCycles               499609                       # Number of cycles decode is blocked
system.cpu0.decode.RunCycles                  2917255                       # Number of cycles decode is running
system.cpu0.decode.UnblockCycles               126416                       # Number of cycles decode is unblocking
system.cpu0.decode.SquashCycles                  4535                       # Number of cycles decode is squashing
system.cpu0.decode.DecodedInsts              16445688                       # Number of instructions handled by decode
system.cpu0.rename.SquashCycles                  4535                       # Number of cycles rename is squashing
system.cpu0.rename.IdleCycles                 1333622                       # Number of cycles rename is idle
system.cpu0.rename.BlockCycles                 113202                       # Number of cycles rename is blocking
system.cpu0.rename.serializeStallCycles          2021                       # count of cycles rename stalled for serializing inst
system.cpu0.rename.RunCycles                  2985843                       # Number of cycles rename is running
system.cpu0.rename.UnblockCycles               389557                       # Number of cycles rename is unblocking
system.cpu0.rename.RenamedInsts              16425977                       # Number of instructions processed by rename
system.cpu0.rename.ROBFullEvents                16882                       # Number of times rename has blocked due to ROB full
system.cpu0.rename.IQFullEvents                 69481                       # Number of times rename has blocked due to IQ full
system.cpu0.rename.LQFullEvents                  1355                       # Number of times rename has blocked due to LQ full
system.cpu0.rename.SQFullEvents                255082                       # Number of times rename has blocked due to SQ full
system.cpu0.rename.RenamedOperands           22950934                       # Number of destination operands rename has renamed
system.cpu0.rename.RenameLookups             41722019                       # Number of register rename lookups that rename has made
system.cpu0.rename.int_rename_lookups        23677902                       # Number of integer rename lookups
system.cpu0.rename.fp_rename_lookups           604552                       # Number of floating rename lookups
system.cpu0.rename.CommittedMaps             22769020                       # Number of HB maps that are committed
system.cpu0.rename.UndoneMaps                  181716                       # Number of HB maps that are undone due to squashing
system.cpu0.rename.serializingInsts                54                       # count of serializing insts renamed
system.cpu0.rename.tempSerializingInsts            52                       # count of temporary serializing insts renamed
system.cpu0.rename.skidInsts                   674085                       # count of insts added to the skid buffer
system.cpu0.memDep0.insertedLoads             1337990                       # Number of loads inserted to the mem dependence unit.
system.cpu0.memDep0.insertedStores             648853                       # Number of stores inserted to the mem dependence unit.
system.cpu0.memDep0.conflictingLoads            48691                       # Number of conflicting loads.
system.cpu0.memDep0.conflictingStores           13635                       # Number of conflicting stores.
system.cpu0.iq.iqInstsAdded                  16385807                       # Number of instructions added to the IQ (excludes non-spec)
system.cpu0.iq.iqNonSpecInstsAdded                713                       # Number of non-speculative instructions added to the IQ
system.cpu0.iq.iqInstsIssued                 16354458                       # Number of instructions issued
system.cpu0.iq.iqSquashedInstsIssued             1587                       # Number of squashed instructions issued
system.cpu0.iq.iqSquashedInstsExamined         122115                       # Number of squashed instructions iterated over during squash; mainly for profiling
system.cpu0.iq.iqSquashedOperandsExamined       168297                       # Number of squashed operands that are examined and possibly removed from graph
system.cpu0.iq.iqSquashedNonSpecRemoved           522                       # Number of squashed non-spec instructions that were removed
system.cpu0.iq.issued_per_cycle::samples      4828780                       # Number of insts issued each cycle
system.cpu0.iq.issued_per_cycle::mean        3.386872                       # Number of insts issued each cycle
system.cpu0.iq.issued_per_cycle::stdev       1.890882                       # Number of insts issued each cycle
system.cpu0.iq.issued_per_cycle::underflows            0      0.00%      0.00% # Number of insts issued each cycle
system.cpu0.iq.issued_per_cycle::0             328795      6.81%      6.81% # Number of insts issued each cycle
system.cpu0.iq.issued_per_cycle::1             192590      3.99%     10.80% # Number of insts issued each cycle
system.cpu0.iq.issued_per_cycle::2            1490306     30.86%     41.66% # Number of insts issued each cycle
system.cpu0.iq.issued_per_cycle::3             757859     15.69%     57.36% # Number of insts issued each cycle
system.cpu0.iq.issued_per_cycle::4             347615      7.20%     64.55% # Number of insts issued each cycle
system.cpu0.iq.issued_per_cycle::5            1064608     22.05%     86.60% # Number of insts issued each cycle
system.cpu0.iq.issued_per_cycle::6             411776      8.53%     95.13% # Number of insts issued each cycle
system.cpu0.iq.issued_per_cycle::7             158325      3.28%     98.41% # Number of insts issued each cycle
system.cpu0.iq.issued_per_cycle::8              76906      1.59%    100.00% # Number of insts issued each cycle
system.cpu0.iq.issued_per_cycle::overflows            0      0.00%    100.00% # Number of insts issued each cycle
system.cpu0.iq.issued_per_cycle::min_value            0                       # Number of insts issued each cycle
system.cpu0.iq.issued_per_cycle::max_value            8                       # Number of insts issued each cycle
system.cpu0.iq.issued_per_cycle::total        4828780                       # Number of insts issued each cycle
system.cpu0.iq.fu_full::No_OpClass                  0      0.00%      0.00% # attempts to use FU when none available
system.cpu0.iq.fu_full::IntAlu                 135455     94.94%     94.94% # attempts to use FU when none available
system.cpu0.iq.fu_full::IntMult                     0      0.00%     94.94% # attempts to use FU when none available
system.cpu0.iq.fu_full::IntDiv                      0      0.00%     94.94% # attempts to use FU when none available
system.cpu0.iq.fu_full::FloatAdd                 5222      3.66%     98.60% # attempts to use FU when none available
system.cpu0.iq.fu_full::FloatCmp                    0      0.00%     98.60% # attempts to use FU when none available
system.cpu0.iq.fu_full::FloatCvt                    0      0.00%     98.60% # attempts to use FU when none available
system.cpu0.iq.fu_full::FloatMult                   0      0.00%     98.60% # attempts to use FU when none available
system.cpu0.iq.fu_full::FloatMultAcc                0      0.00%     98.60% # attempts to use FU when none available
system.cpu0.iq.fu_full::FloatDiv                    0      0.00%     98.60% # attempts to use FU when none available
system.cpu0.iq.fu_full::FloatMisc                   0      0.00%     98.60% # attempts to use FU when none available
system.cpu0.iq.fu_full::FloatSqrt                   0      0.00%     98.60% # attempts to use FU when none available
system.cpu0.iq.fu_full::SimdAdd                     0      0.00%     98.60% # attempts to use FU when none available
system.cpu0.iq.fu_full::SimdAddAcc                  0      0.00%     98.60% # attempts to use FU when none available
system.cpu0.iq.fu_full::SimdAlu                     0      0.00%     98.60% # attempts to use FU when none available
system.cpu0.iq.fu_full::SimdCmp                     0      0.00%     98.60% # attempts to use FU when none available
system.cpu0.iq.fu_full::SimdCvt                     0      0.00%     98.60% # attempts to use FU when none available
system.cpu0.iq.fu_full::SimdMisc                    0      0.00%     98.60% # attempts to use FU when none available
system.cpu0.iq.fu_full::SimdMult                    0      0.00%     98.60% # attempts to use FU when none available
system.cpu0.iq.fu_full::SimdMultAcc                 0      0.00%     98.60% # attempts to use FU when none available
system.cpu0.iq.fu_full::SimdShift                   0      0.00%     98.60% # attempts to use FU when none available
system.cpu0.iq.fu_full::SimdShiftAcc                0      0.00%     98.60% # attempts to use FU when none available
system.cpu0.iq.fu_full::SimdSqrt                    0      0.00%     98.60% # attempts to use FU when none available
system.cpu0.iq.fu_full::SimdFloatAdd                0      0.00%     98.60% # attempts to use FU when none available
system.cpu0.iq.fu_full::SimdFloatAlu                0      0.00%     98.60% # attempts to use FU when none available
system.cpu0.iq.fu_full::SimdFloatCmp                0      0.00%     98.60% # attempts to use FU when none available
system.cpu0.iq.fu_full::SimdFloatCvt                0      0.00%     98.60% # attempts to use FU when none available
system.cpu0.iq.fu_full::SimdFloatDiv                0      0.00%     98.60% # attempts to use FU when none available
system.cpu0.iq.fu_full::SimdFloatMisc               0      0.00%     98.60% # attempts to use FU when none available
system.cpu0.iq.fu_full::SimdFloatMult               0      0.00%     98.60% # attempts to use FU when none available
system.cpu0.iq.fu_full::SimdFloatMultAcc            0      0.00%     98.60% # attempts to use FU when none available
system.cpu0.iq.fu_full::SimdFloatSqrt               0      0.00%     98.60% # attempts to use FU when none available
system.cpu0.iq.fu_full::MemRead                   434      0.30%     98.90% # attempts to use FU when none available
system.cpu0.iq.fu_full::MemWrite                  534      0.37%     99.28% # attempts to use FU when none available
system.cpu0.iq.fu_full::FloatMemRead               13      0.01%     99.28% # attempts to use FU when none available
system.cpu0.iq.fu_full::FloatMemWrite            1021      0.72%    100.00% # attempts to use FU when none available
system.cpu0.iq.fu_full::IprAccess                   0      0.00%    100.00% # attempts to use FU when none available
system.cpu0.iq.fu_full::InstPrefetch                0      0.00%    100.00% # attempts to use FU when none available
system.cpu0.iq.FU_type_0::No_OpClass            11445      0.07%      0.07% # Type of FU issued
system.cpu0.iq.FU_type_0::IntAlu             14080930     86.10%     86.17% # Type of FU issued
system.cpu0.iq.FU_type_0::IntMult                6230      0.04%     86.21% # Type of FU issued
system.cpu0.iq.FU_type_0::IntDiv                  137      0.00%     86.21% # Type of FU issued
system.cpu0.iq.FU_type_0::FloatAdd             267728      1.64%     87.84% # Type of FU issued
system.cpu0.iq.FU_type_0::FloatCmp                  0      0.00%     87.84% # Type of FU issued
system.cpu0.iq.FU_type_0::FloatCvt                  0      0.00%     87.84% # Type of FU issued
system.cpu0.iq.FU_type_0::FloatMult                 0      0.00%     87.84% # Type of FU issued
system.cpu0.iq.FU_type_0::FloatMultAcc              0      0.00%     87.84% # Type of FU issued
system.cpu0.iq.FU_type_0::FloatDiv                  0      0.00%     87.84% # Type of FU issued
system.cpu0.iq.FU_type_0::FloatMisc                 0      0.00%     87.84% # Type of FU issued
system.cpu0.iq.FU_type_0::FloatSqrt                 0      0.00%     87.84% # Type of FU issued
system.cpu0.iq.FU_type_0::SimdAdd                   0      0.00%     87.84% # Type of FU issued
system.cpu0.iq.FU_type_0::SimdAddAcc                0      0.00%     87.84% # Type of FU issued
system.cpu0.iq.FU_type_0::SimdAlu                   0      0.00%     87.84% # Type of FU issued
system.cpu0.iq.FU_type_0::SimdCmp                   0      0.00%     87.84% # Type of FU issued
system.cpu0.iq.FU_type_0::SimdCvt                   0      0.00%     87.84% # Type of FU issued
system.cpu0.iq.FU_type_0::SimdMisc                  0      0.00%     87.84% # Type of FU issued
system.cpu0.iq.FU_type_0::SimdMult                  0      0.00%     87.84% # Type of FU issued
system.cpu0.iq.FU_type_0::SimdMultAcc               0      0.00%     87.84% # Type of FU issued
system.cpu0.iq.FU_type_0::SimdShift                 0      0.00%     87.84% # Type of FU issued
system.cpu0.iq.FU_type_0::SimdShiftAcc              0      0.00%     87.84% # Type of FU issued
system.cpu0.iq.FU_type_0::SimdSqrt                  0      0.00%     87.84% # Type of FU issued
system.cpu0.iq.FU_type_0::SimdFloatAdd              0      0.00%     87.84% # Type of FU issued
system.cpu0.iq.FU_type_0::SimdFloatAlu              0      0.00%     87.84% # Type of FU issued
system.cpu0.iq.FU_type_0::SimdFloatCmp              0      0.00%     87.84% # Type of FU issued
system.cpu0.iq.FU_type_0::SimdFloatCvt              0      0.00%     87.84% # Type of FU issued
system.cpu0.iq.FU_type_0::SimdFloatDiv              0      0.00%     87.84% # Type of FU issued
system.cpu0.iq.FU_type_0::SimdFloatMisc             0      0.00%     87.84% # Type of FU issued
system.cpu0.iq.FU_type_0::SimdFloatMult             0      0.00%     87.84% # Type of FU issued
system.cpu0.iq.FU_type_0::SimdFloatMultAcc            0      0.00%     87.84% # Type of FU issued
system.cpu0.iq.FU_type_0::SimdFloatSqrt             0      0.00%     87.84% # Type of FU issued
system.cpu0.iq.FU_type_0::MemRead             1254100      7.67%     95.51% # Type of FU issued
system.cpu0.iq.FU_type_0::MemWrite             601294      3.68%     99.19% # Type of FU issued
system.cpu0.iq.FU_type_0::FloatMemRead          88566      0.54%     99.73% # Type of FU issued
system.cpu0.iq.FU_type_0::FloatMemWrite         44028      0.27%    100.00% # Type of FU issued
system.cpu0.iq.FU_type_0::IprAccess                 0      0.00%    100.00% # Type of FU issued
system.cpu0.iq.FU_type_0::InstPrefetch              0      0.00%    100.00% # Type of FU issued
system.cpu0.iq.FU_type_0::total              16354458                       # Type of FU issued
system.cpu0.iq.rate                          3.340792                       # Inst issue rate
system.cpu0.iq.fu_busy_cnt                     142679                       # FU busy when requested
system.cpu0.iq.fu_busy_rate                  0.008724                       # FU busy rate (busy events/executed inst)
system.cpu0.iq.int_inst_queue_reads          36653179                       # Number of integer instruction queue reads
system.cpu0.iq.int_inst_queue_writes         16004618                       # Number of integer instruction queue writes
system.cpu0.iq.int_inst_queue_wakeup_accesses     15826952                       # Number of integer instruction queue wakeup accesses
system.cpu0.iq.fp_inst_queue_reads            1028777                       # Number of floating instruction queue reads
system.cpu0.iq.fp_inst_queue_writes            504104                       # Number of floating instruction queue writes
system.cpu0.iq.fp_inst_queue_wakeup_accesses       500521                       # Number of floating instruction queue wakeup accesses
system.cpu0.iq.vec_inst_queue_reads                 0                       # Number of vector instruction queue reads
system.cpu0.iq.vec_inst_queue_writes                0                       # Number of vector instruction queue writes
system.cpu0.iq.vec_inst_queue_wakeup_accesses            0                       # Number of vector instruction queue wakeup accesses
system.cpu0.iq.int_alu_accesses              15968129                       # Number of integer alu accesses
system.cpu0.iq.fp_alu_accesses                 517563                       # Number of floating point alu accesses
system.cpu0.iq.vec_alu_accesses                     0                       # Number of vector alu accesses
system.cpu0.iew.lsq.thread0.forwLoads           76432                       # Number of loads that had data forwarded from stores
system.cpu0.iew.lsq.thread0.invAddrLoads            0                       # Number of loads ignored due to an invalid address
system.cpu0.iew.lsq.thread0.squashedLoads        17894                       # Number of loads squashed
system.cpu0.iew.lsq.thread0.ignoredResponses           37                       # Number of memory responses ignored because the instruction is squashed
system.cpu0.iew.lsq.thread0.memOrderViolation           94                       # Number of memory ordering violations
system.cpu0.iew.lsq.thread0.squashedStores         7909                       # Number of stores squashed
system.cpu0.iew.lsq.thread0.invAddrSwpfs            0                       # Number of software prefetches ignored due to an invalid address
system.cpu0.iew.lsq.thread0.blockedLoads            0                       # Number of blocked loads due to partial load-store forwarding
system.cpu0.iew.lsq.thread0.rescheduledLoads        10202                       # Number of loads that were rescheduled
system.cpu0.iew.lsq.thread0.cacheBlocked         1008                       # Number of times an access to memory failed due to the cache being blocked
system.cpu0.iew.iewIdleCycles                       0                       # Number of cycles IEW is idle
system.cpu0.iew.iewSquashCycles                  4535                       # Number of cycles IEW is squashing
system.cpu0.iew.iewBlockCycles                  20643                       # Number of cycles IEW is blocking
system.cpu0.iew.iewUnblockCycles                52443                       # Number of cycles IEW is unblocking
system.cpu0.iew.iewDispatchedInsts           16386520                       # Number of instructions dispatched to IQ
system.cpu0.iew.iewDispSquashedInsts             1606                       # Number of squashed instructions skipped by dispatch
system.cpu0.iew.iewDispLoadInsts              1337990                       # Number of dispatched load instructions
system.cpu0.iew.iewDispStoreInsts              648853                       # Number of dispatched store instructions
system.cpu0.iew.iewDispNonSpecInsts               261                       # Number of dispatched non-speculative instructions
system.cpu0.iew.iewIQFullEvents                    32                       # Number of times the IQ has become full, causing a stall
system.cpu0.iew.iewLSQFullEvents                50378                       # Number of times the LSQ has become full, causing a stall
system.cpu0.iew.memOrderViolationEvents            94                       # Number of memory order violations
system.cpu0.iew.predictedTakenIncorrect          1767                       # Number of branches that were predicted taken incorrectly
system.cpu0.iew.predictedNotTakenIncorrect         3964                       # Number of branches that were predicted not taken incorrectly
system.cpu0.iew.branchMispredicts                5731                       # Number of branch mispredicts detected at execute
system.cpu0.iew.iewExecutedInsts             16344871                       # Number of executed instructions
system.cpu0.iew.iewExecLoadInsts              1340746                       # Number of load instructions executed
system.cpu0.iew.iewExecSquashedInsts             9581                       # Number of squashed instructions skipped in execute
system.cpu0.iew.exec_swp                            0                       # number of swp insts executed
system.cpu0.iew.exec_nop                            0                       # number of nop insts executed
system.cpu0.iew.exec_refs                     1985043                       # number of memory reference insts executed
system.cpu0.iew.exec_branches                 2012790                       # Number of branches executed
system.cpu0.iew.exec_stores                    644297                       # Number of stores executed
system.cpu0.iew.exec_rate                    3.338833                       # Inst execution rate
system.cpu0.iew.wb_sent                      16328885                       # cumulative count of insts sent to commit
system.cpu0.iew.wb_count                     16327473                       # cumulative count of insts written-back
system.cpu0.iew.wb_producers                 12754855                       # num instructions producing a value
system.cpu0.iew.wb_consumers                 19062542                       # num instructions consuming a value
system.cpu0.iew.wb_rate                      3.335279                       # insts written-back per cycle
system.cpu0.iew.wb_fanout                    0.669106                       # average fanout of values written-back
system.cpu0.commit.commitSquashedInsts         122122                       # The number of squashed insts skipped by commit
system.cpu0.commit.commitNonSpecStalls            191                       # The number of times commit has been forced to stall to communicate backwards
system.cpu0.commit.branchMispredicts             4467                       # The number of times a branch was mispredicted
system.cpu0.commit.committed_per_cycle::samples      4810024                       # Number of insts commited each cycle
system.cpu0.commit.committed_per_cycle::mean     3.381329                       # Number of insts commited each cycle
system.cpu0.commit.committed_per_cycle::stdev     3.097944                       # Number of insts commited each cycle
system.cpu0.commit.committed_per_cycle::underflows            0      0.00%      0.00% # Number of insts commited each cycle
system.cpu0.commit.committed_per_cycle::0       705708     14.67%     14.67% # Number of insts commited each cycle
system.cpu0.commit.committed_per_cycle::1      1460235     30.36%     45.03% # Number of insts commited each cycle
system.cpu0.commit.committed_per_cycle::2       376504      7.83%     52.86% # Number of insts commited each cycle
system.cpu0.commit.committed_per_cycle::3       605229     12.58%     65.44% # Number of insts commited each cycle
system.cpu0.commit.committed_per_cycle::4       123702      2.57%     68.01% # Number of insts commited each cycle
system.cpu0.commit.committed_per_cycle::5        87267      1.81%     69.83% # Number of insts commited each cycle
system.cpu0.commit.committed_per_cycle::6       148934      3.10%     72.92% # Number of insts commited each cycle
system.cpu0.commit.committed_per_cycle::7         8962      0.19%     73.11% # Number of insts commited each cycle
system.cpu0.commit.committed_per_cycle::8      1293483     26.89%    100.00% # Number of insts commited each cycle
system.cpu0.commit.committed_per_cycle::overflows            0      0.00%    100.00% # Number of insts commited each cycle
system.cpu0.commit.committed_per_cycle::min_value            0                       # Number of insts commited each cycle
system.cpu0.commit.committed_per_cycle::max_value            8                       # Number of insts commited each cycle
system.cpu0.commit.committed_per_cycle::total      4810024                       # Number of insts commited each cycle
system.cpu0.commit.committedInsts             9968982                       # Number of instructions committed
system.cpu0.commit.committedOps              16264275                       # Number of ops (including micro ops) committed
system.cpu0.commit.swp_count                        0                       # Number of s/w prefetches committed
system.cpu0.commit.refs                       1961021                       # Number of memory references committed
system.cpu0.commit.loads                      1320087                       # Number of loads committed
system.cpu0.commit.membars                        120                       # Number of memory barriers committed
system.cpu0.commit.branches                   2007693                       # Number of branches committed
system.cpu0.commit.vec_insts                        0                       # Number of committed Vector instructions.
system.cpu0.commit.fp_insts                    499024                       # Number of committed floating point instructions.
system.cpu0.commit.int_insts                 15874525                       # Number of committed integer instructions.
system.cpu0.commit.function_calls               17140                       # Number of function calls committed.
system.cpu0.commit.op_class_0::No_OpClass        10377      0.06%      0.06% # Class of committed instruction
system.cpu0.commit.op_class_0::IntAlu        14019843     86.20%     86.26% # Class of committed instruction
system.cpu0.commit.op_class_0::IntMult           6212      0.04%     86.30% # Class of committed instruction
system.cpu0.commit.op_class_0::IntDiv             119      0.00%     86.30% # Class of committed instruction
system.cpu0.commit.op_class_0::FloatAdd        266703      1.64%     87.94% # Class of committed instruction
system.cpu0.commit.op_class_0::FloatCmp             0      0.00%     87.94% # Class of committed instruction
system.cpu0.commit.op_class_0::FloatCvt             0      0.00%     87.94% # Class of committed instruction
system.cpu0.commit.op_class_0::FloatMult            0      0.00%     87.94% # Class of committed instruction
system.cpu0.commit.op_class_0::FloatMultAcc            0      0.00%     87.94% # Class of committed instruction
system.cpu0.commit.op_class_0::FloatDiv             0      0.00%     87.94% # Class of committed instruction
system.cpu0.commit.op_class_0::FloatMisc            0      0.00%     87.94% # Class of committed instruction
system.cpu0.commit.op_class_0::FloatSqrt            0      0.00%     87.94% # Class of committed instruction
system.cpu0.commit.op_class_0::SimdAdd              0      0.00%     87.94% # Class of committed instruction
system.cpu0.commit.op_class_0::SimdAddAcc            0      0.00%     87.94% # Class of committed instruction
system.cpu0.commit.op_class_0::SimdAlu              0      0.00%     87.94% # Class of committed instruction
system.cpu0.commit.op_class_0::SimdCmp              0      0.00%     87.94% # Class of committed instruction
system.cpu0.commit.op_class_0::SimdCvt              0      0.00%     87.94% # Class of committed instruction
system.cpu0.commit.op_class_0::SimdMisc             0      0.00%     87.94% # Class of committed instruction
system.cpu0.commit.op_class_0::SimdMult             0      0.00%     87.94% # Class of committed instruction
system.cpu0.commit.op_class_0::SimdMultAcc            0      0.00%     87.94% # Class of committed instruction
system.cpu0.commit.op_class_0::SimdShift            0      0.00%     87.94% # Class of committed instruction
system.cpu0.commit.op_class_0::SimdShiftAcc            0      0.00%     87.94% # Class of committed instruction
system.cpu0.commit.op_class_0::SimdSqrt             0      0.00%     87.94% # Class of committed instruction
system.cpu0.commit.op_class_0::SimdFloatAdd            0      0.00%     87.94% # Class of committed instruction
system.cpu0.commit.op_class_0::SimdFloatAlu            0      0.00%     87.94% # Class of committed instruction
system.cpu0.commit.op_class_0::SimdFloatCmp            0      0.00%     87.94% # Class of committed instruction
system.cpu0.commit.op_class_0::SimdFloatCvt            0      0.00%     87.94% # Class of committed instruction
system.cpu0.commit.op_class_0::SimdFloatDiv            0      0.00%     87.94% # Class of committed instruction
system.cpu0.commit.op_class_0::SimdFloatMisc            0      0.00%     87.94% # Class of committed instruction
system.cpu0.commit.op_class_0::SimdFloatMult            0      0.00%     87.94% # Class of committed instruction
system.cpu0.commit.op_class_0::SimdFloatMultAcc            0      0.00%     87.94% # Class of committed instruction
system.cpu0.commit.op_class_0::SimdFloatSqrt            0      0.00%     87.94% # Class of committed instruction
system.cpu0.commit.op_class_0::MemRead        1242146      7.64%     95.58% # Class of committed instruction
system.cpu0.commit.op_class_0::MemWrite        597140      3.67%     99.25% # Class of committed instruction
system.cpu0.commit.op_class_0::FloatMemRead        77941      0.48%     99.73% # Class of committed instruction
system.cpu0.commit.op_class_0::FloatMemWrite        43794      0.27%    100.00% # Class of committed instruction
system.cpu0.commit.op_class_0::IprAccess            0      0.00%    100.00% # Class of committed instruction
system.cpu0.commit.op_class_0::InstPrefetch            0      0.00%    100.00% # Class of committed instruction
system.cpu0.commit.op_class_0::total         16264275                       # Class of committed instruction
system.cpu0.commit.bw_lim_events              1293483                       # number cycles where commit BW limit reached
system.cpu0.rob.rob_reads                    19902938                       # The number of ROB reads
system.cpu0.rob.rob_writes                   32791918                       # The number of ROB writes
system.cpu0.timesIdled                            445                       # Number of times that the entire CPU went into an idle state and unscheduled itself
system.cpu0.idleCycles                          66604                       # Total number of cycles that the CPU has spent unscheduled due to idling
system.cpu0.committedInsts                    9968982                       # Number of Instructions Simulated
system.cpu0.committedOps                     16264275                       # Number of Ops (including micro ops) Simulated
system.cpu0.cpi                              0.491062                       # CPI: Cycles Per Instruction
system.cpu0.cpi_total                        0.491062                       # CPI: Total CPI of All Threads
system.cpu0.ipc                              2.036404                       # IPC: Instructions Per Cycle
system.cpu0.ipc_total                        2.036404                       # IPC: Total IPC of All Threads
system.cpu0.int_regfile_reads                23537700                       # number of integer regfile reads
system.cpu0.int_regfile_writes               13208000                       # number of integer regfile writes
system.cpu0.fp_regfile_reads                   602578                       # number of floating regfile reads
system.cpu0.fp_regfile_writes                  438088                       # number of floating regfile writes
system.cpu0.cc_regfile_reads                 11350579                       # number of cc regfile reads
system.cpu0.cc_regfile_writes                 9194218                       # number of cc regfile writes
system.cpu0.misc_regfile_reads                6012683                       # number of misc regfile reads
system.cpu0.dcache.tags.pwrStateResidencyTicks::UNDEFINED   1630162539                       # Cumulative time (in ticks) in various power states
system.cpu0.dcache.tags.replacements            52480                       # number of replacements
system.cpu0.dcache.tags.tagsinuse          503.321377                       # Cycle average of tags in use
system.cpu0.dcache.tags.total_refs            1737046                       # Total number of references to valid blocks.
system.cpu0.dcache.tags.sampled_refs            52992                       # Sample count of references to valid blocks.
system.cpu0.dcache.tags.avg_refs            32.779401                       # Average number of references to valid blocks.
system.cpu0.dcache.tags.warmup_cycle           145188                       # Cycle when the warmup percentage was hit.
system.cpu0.dcache.tags.occ_blocks::cpu0.data   503.321377                       # Average occupied blocks per requestor
system.cpu0.dcache.tags.occ_percent::cpu0.data     0.983050                       # Average percentage of cache occupancy
system.cpu0.dcache.tags.occ_percent::total     0.983050                       # Average percentage of cache occupancy
system.cpu0.dcache.tags.occ_task_id_blocks::1024          512                       # Occupied blocks per task id
system.cpu0.dcache.tags.age_task_id_blocks_1024::0           88                       # Occupied blocks per task id
system.cpu0.dcache.tags.age_task_id_blocks_1024::1           32                       # Occupied blocks per task id
system.cpu0.dcache.tags.age_task_id_blocks_1024::3          392                       # Occupied blocks per task id
system.cpu0.dcache.tags.occ_task_id_percent::1024            1                       # Percentage of cache occupancy per task id
system.cpu0.dcache.tags.tag_accesses         15204328                       # Number of tag accesses
system.cpu0.dcache.tags.data_accesses        15204328                       # Number of data accesses
system.cpu0.dcache.pwrStateResidencyTicks::UNDEFINED   1630162539                       # Cumulative time (in ticks) in various power states
system.cpu0.dcache.ReadReq_hits::cpu0.data      1102294                       # number of ReadReq hits
system.cpu0.dcache.ReadReq_hits::total        1102294                       # number of ReadReq hits
system.cpu0.dcache.WriteReq_hits::cpu0.data       634752                       # number of WriteReq hits
system.cpu0.dcache.WriteReq_hits::total        634752                       # number of WriteReq hits
system.cpu0.dcache.demand_hits::cpu0.data      1737046                       # number of demand (read+write) hits
system.cpu0.dcache.demand_hits::total         1737046                       # number of demand (read+write) hits
system.cpu0.dcache.overall_hits::cpu0.data      1737046                       # number of overall hits
system.cpu0.dcache.overall_hits::total        1737046                       # number of overall hits
system.cpu0.dcache.ReadReq_misses::cpu0.data       150708                       # number of ReadReq misses
system.cpu0.dcache.ReadReq_misses::total       150708                       # number of ReadReq misses
system.cpu0.dcache.WriteReq_misses::cpu0.data         6163                       # number of WriteReq misses
system.cpu0.dcache.WriteReq_misses::total         6163                       # number of WriteReq misses
system.cpu0.dcache.demand_misses::cpu0.data       156871                       # number of demand (read+write) misses
system.cpu0.dcache.demand_misses::total        156871                       # number of demand (read+write) misses
system.cpu0.dcache.overall_misses::cpu0.data       156871                       # number of overall misses
system.cpu0.dcache.overall_misses::total       156871                       # number of overall misses
system.cpu0.dcache.ReadReq_miss_latency::cpu0.data    596094309                       # number of ReadReq miss cycles
system.cpu0.dcache.ReadReq_miss_latency::total    596094309                       # number of ReadReq miss cycles
system.cpu0.dcache.WriteReq_miss_latency::cpu0.data     95081477                       # number of WriteReq miss cycles
system.cpu0.dcache.WriteReq_miss_latency::total     95081477                       # number of WriteReq miss cycles
system.cpu0.dcache.demand_miss_latency::cpu0.data    691175786                       # number of demand (read+write) miss cycles
system.cpu0.dcache.demand_miss_latency::total    691175786                       # number of demand (read+write) miss cycles
system.cpu0.dcache.overall_miss_latency::cpu0.data    691175786                       # number of overall miss cycles
system.cpu0.dcache.overall_miss_latency::total    691175786                       # number of overall miss cycles
system.cpu0.dcache.ReadReq_accesses::cpu0.data      1253002                       # number of ReadReq accesses(hits+misses)
system.cpu0.dcache.ReadReq_accesses::total      1253002                       # number of ReadReq accesses(hits+misses)
system.cpu0.dcache.WriteReq_accesses::cpu0.data       640915                       # number of WriteReq accesses(hits+misses)
system.cpu0.dcache.WriteReq_accesses::total       640915                       # number of WriteReq accesses(hits+misses)
system.cpu0.dcache.demand_accesses::cpu0.data      1893917                       # number of demand (read+write) accesses
system.cpu0.dcache.demand_accesses::total      1893917                       # number of demand (read+write) accesses
system.cpu0.dcache.overall_accesses::cpu0.data      1893917                       # number of overall (read+write) accesses
system.cpu0.dcache.overall_accesses::total      1893917                       # number of overall (read+write) accesses
system.cpu0.dcache.ReadReq_miss_rate::cpu0.data     0.120278                       # miss rate for ReadReq accesses
system.cpu0.dcache.ReadReq_miss_rate::total     0.120278                       # miss rate for ReadReq accesses
system.cpu0.dcache.WriteReq_miss_rate::cpu0.data     0.009616                       # miss rate for WriteReq accesses
system.cpu0.dcache.WriteReq_miss_rate::total     0.009616                       # miss rate for WriteReq accesses
system.cpu0.dcache.demand_miss_rate::cpu0.data     0.082829                       # miss rate for demand accesses
system.cpu0.dcache.demand_miss_rate::total     0.082829                       # miss rate for demand accesses
system.cpu0.dcache.overall_miss_rate::cpu0.data     0.082829                       # miss rate for overall accesses
system.cpu0.dcache.overall_miss_rate::total     0.082829                       # miss rate for overall accesses
system.cpu0.dcache.ReadReq_avg_miss_latency::cpu0.data  3955.293077                       # average ReadReq miss latency
system.cpu0.dcache.ReadReq_avg_miss_latency::total  3955.293077                       # average ReadReq miss latency
system.cpu0.dcache.WriteReq_avg_miss_latency::cpu0.data 15427.791173                       # average WriteReq miss latency
system.cpu0.dcache.WriteReq_avg_miss_latency::total 15427.791173                       # average WriteReq miss latency
system.cpu0.dcache.demand_avg_miss_latency::cpu0.data  4406.013769                       # average overall miss latency
system.cpu0.dcache.demand_avg_miss_latency::total  4406.013769                       # average overall miss latency
system.cpu0.dcache.overall_avg_miss_latency::cpu0.data  4406.013769                       # average overall miss latency
system.cpu0.dcache.overall_avg_miss_latency::total  4406.013769                       # average overall miss latency
system.cpu0.dcache.blocked_cycles::no_mshrs         1849                       # number of cycles access was blocked
system.cpu0.dcache.blocked_cycles::no_targets            0                       # number of cycles access was blocked
system.cpu0.dcache.blocked::no_mshrs              408                       # number of cycles access was blocked
system.cpu0.dcache.blocked::no_targets              0                       # number of cycles access was blocked
system.cpu0.dcache.avg_blocked_cycles::no_mshrs     4.531863                       # average number of cycles each access was blocked
system.cpu0.dcache.avg_blocked_cycles::no_targets          nan                       # average number of cycles each access was blocked
system.cpu0.dcache.writebacks::writebacks        52375                       # number of writebacks
system.cpu0.dcache.writebacks::total            52375                       # number of writebacks
system.cpu0.dcache.ReadReq_mshr_hits::cpu0.data       103827                       # number of ReadReq MSHR hits
system.cpu0.dcache.ReadReq_mshr_hits::total       103827                       # number of ReadReq MSHR hits
system.cpu0.dcache.WriteReq_mshr_hits::cpu0.data           52                       # number of WriteReq MSHR hits
system.cpu0.dcache.WriteReq_mshr_hits::total           52                       # number of WriteReq MSHR hits
system.cpu0.dcache.demand_mshr_hits::cpu0.data       103879                       # number of demand (read+write) MSHR hits
system.cpu0.dcache.demand_mshr_hits::total       103879                       # number of demand (read+write) MSHR hits
system.cpu0.dcache.overall_mshr_hits::cpu0.data       103879                       # number of overall MSHR hits
system.cpu0.dcache.overall_mshr_hits::total       103879                       # number of overall MSHR hits
system.cpu0.dcache.ReadReq_mshr_misses::cpu0.data        46881                       # number of ReadReq MSHR misses
system.cpu0.dcache.ReadReq_mshr_misses::total        46881                       # number of ReadReq MSHR misses
system.cpu0.dcache.WriteReq_mshr_misses::cpu0.data         6111                       # number of WriteReq MSHR misses
system.cpu0.dcache.WriteReq_mshr_misses::total         6111                       # number of WriteReq MSHR misses
system.cpu0.dcache.demand_mshr_misses::cpu0.data        52992                       # number of demand (read+write) MSHR misses
system.cpu0.dcache.demand_mshr_misses::total        52992                       # number of demand (read+write) MSHR misses
system.cpu0.dcache.overall_mshr_misses::cpu0.data        52992                       # number of overall MSHR misses
system.cpu0.dcache.overall_mshr_misses::total        52992                       # number of overall MSHR misses
system.cpu0.dcache.ReadReq_mshr_miss_latency::cpu0.data    196556247                       # number of ReadReq MSHR miss cycles
system.cpu0.dcache.ReadReq_mshr_miss_latency::total    196556247                       # number of ReadReq MSHR miss cycles
system.cpu0.dcache.WriteReq_mshr_miss_latency::cpu0.data     90723839                       # number of WriteReq MSHR miss cycles
system.cpu0.dcache.WriteReq_mshr_miss_latency::total     90723839                       # number of WriteReq MSHR miss cycles
system.cpu0.dcache.demand_mshr_miss_latency::cpu0.data    287280086                       # number of demand (read+write) MSHR miss cycles
system.cpu0.dcache.demand_mshr_miss_latency::total    287280086                       # number of demand (read+write) MSHR miss cycles
system.cpu0.dcache.overall_mshr_miss_latency::cpu0.data    287280086                       # number of overall MSHR miss cycles
system.cpu0.dcache.overall_mshr_miss_latency::total    287280086                       # number of overall MSHR miss cycles
system.cpu0.dcache.ReadReq_mshr_miss_rate::cpu0.data     0.037415                       # mshr miss rate for ReadReq accesses
system.cpu0.dcache.ReadReq_mshr_miss_rate::total     0.037415                       # mshr miss rate for ReadReq accesses
system.cpu0.dcache.WriteReq_mshr_miss_rate::cpu0.data     0.009535                       # mshr miss rate for WriteReq accesses
system.cpu0.dcache.WriteReq_mshr_miss_rate::total     0.009535                       # mshr miss rate for WriteReq accesses
system.cpu0.dcache.demand_mshr_miss_rate::cpu0.data     0.027980                       # mshr miss rate for demand accesses
system.cpu0.dcache.demand_mshr_miss_rate::total     0.027980                       # mshr miss rate for demand accesses
system.cpu0.dcache.overall_mshr_miss_rate::cpu0.data     0.027980                       # mshr miss rate for overall accesses
system.cpu0.dcache.overall_mshr_miss_rate::total     0.027980                       # mshr miss rate for overall accesses
system.cpu0.dcache.ReadReq_avg_mshr_miss_latency::cpu0.data  4192.663275                       # average ReadReq mshr miss latency
system.cpu0.dcache.ReadReq_avg_mshr_miss_latency::total  4192.663275                       # average ReadReq mshr miss latency
system.cpu0.dcache.WriteReq_avg_mshr_miss_latency::cpu0.data 14845.989036                       # average WriteReq mshr miss latency
system.cpu0.dcache.WriteReq_avg_mshr_miss_latency::total 14845.989036                       # average WriteReq mshr miss latency
system.cpu0.dcache.demand_avg_mshr_miss_latency::cpu0.data  5421.197275                       # average overall mshr miss latency
system.cpu0.dcache.demand_avg_mshr_miss_latency::total  5421.197275                       # average overall mshr miss latency
system.cpu0.dcache.overall_avg_mshr_miss_latency::cpu0.data  5421.197275                       # average overall mshr miss latency
system.cpu0.dcache.overall_avg_mshr_miss_latency::total  5421.197275                       # average overall mshr miss latency
system.cpu0.dtb_walker_cache.tags.pwrStateResidencyTicks::UNDEFINED   1630162539                       # Cumulative time (in ticks) in various power states
system.cpu0.dtb_walker_cache.tags.replacements            0                       # number of replacements
system.cpu0.dtb_walker_cache.tags.tagsinuse            0                       # Cycle average of tags in use
system.cpu0.dtb_walker_cache.tags.total_refs            0                       # Total number of references to valid blocks.
system.cpu0.dtb_walker_cache.tags.sampled_refs            0                       # Sample count of references to valid blocks.
system.cpu0.dtb_walker_cache.tags.avg_refs          nan                       # Average number of references to valid blocks.
system.cpu0.dtb_walker_cache.tags.warmup_cycle            0                       # Cycle when the warmup percentage was hit.
system.cpu0.dtb_walker_cache.tags.tag_accesses            0                       # Number of tag accesses
system.cpu0.dtb_walker_cache.tags.data_accesses            0                       # Number of data accesses
system.cpu0.dtb_walker_cache.pwrStateResidencyTicks::UNDEFINED   1630162539                       # Cumulative time (in ticks) in various power states
system.cpu0.dtb_walker_cache.blocked_cycles::no_mshrs            0                       # number of cycles access was blocked
system.cpu0.dtb_walker_cache.blocked_cycles::no_targets            0                       # number of cycles access was blocked
system.cpu0.dtb_walker_cache.blocked::no_mshrs            0                       # number of cycles access was blocked
system.cpu0.dtb_walker_cache.blocked::no_targets            0                       # number of cycles access was blocked
system.cpu0.dtb_walker_cache.avg_blocked_cycles::no_mshrs          nan                       # average number of cycles each access was blocked
system.cpu0.dtb_walker_cache.avg_blocked_cycles::no_targets          nan                       # average number of cycles each access was blocked
system.cpu0.icache.tags.pwrStateResidencyTicks::UNDEFINED   1630162539                       # Cumulative time (in ticks) in various power states
system.cpu0.icache.tags.replacements              287                       # number of replacements
system.cpu0.icache.tags.tagsinuse          502.670477                       # Cycle average of tags in use
system.cpu0.icache.tags.total_refs            1262877                       # Total number of references to valid blocks.
system.cpu0.icache.tags.sampled_refs              799                       # Sample count of references to valid blocks.
system.cpu0.icache.tags.avg_refs          1580.571965                       # Average number of references to valid blocks.
system.cpu0.icache.tags.warmup_cycle            71262                       # Cycle when the warmup percentage was hit.
system.cpu0.icache.tags.occ_blocks::cpu0.inst   502.670477                       # Average occupied blocks per requestor
system.cpu0.icache.tags.occ_percent::cpu0.inst     0.981778                       # Average percentage of cache occupancy
system.cpu0.icache.tags.occ_percent::total     0.981778                       # Average percentage of cache occupancy
system.cpu0.icache.tags.occ_task_id_blocks::1024          512                       # Occupied blocks per task id
system.cpu0.icache.tags.age_task_id_blocks_1024::2            2                       # Occupied blocks per task id
system.cpu0.icache.tags.age_task_id_blocks_1024::3          510                       # Occupied blocks per task id
system.cpu0.icache.tags.occ_task_id_percent::1024            1                       # Percentage of cache occupancy per task id
system.cpu0.icache.tags.tag_accesses         10111959                       # Number of tag accesses
system.cpu0.icache.tags.data_accesses        10111959                       # Number of data accesses
system.cpu0.icache.pwrStateResidencyTicks::UNDEFINED   1630162539                       # Cumulative time (in ticks) in various power states
system.cpu0.icache.ReadReq_hits::cpu0.inst      1262877                       # number of ReadReq hits
system.cpu0.icache.ReadReq_hits::total        1262877                       # number of ReadReq hits
system.cpu0.icache.demand_hits::cpu0.inst      1262877                       # number of demand (read+write) hits
system.cpu0.icache.demand_hits::total         1262877                       # number of demand (read+write) hits
system.cpu0.icache.overall_hits::cpu0.inst      1262877                       # number of overall hits
system.cpu0.icache.overall_hits::total        1262877                       # number of overall hits
system.cpu0.icache.ReadReq_misses::cpu0.inst         1018                       # number of ReadReq misses
system.cpu0.icache.ReadReq_misses::total         1018                       # number of ReadReq misses
system.cpu0.icache.demand_misses::cpu0.inst         1018                       # number of demand (read+write) misses
system.cpu0.icache.demand_misses::total          1018                       # number of demand (read+write) misses
system.cpu0.icache.overall_misses::cpu0.inst         1018                       # number of overall misses
system.cpu0.icache.overall_misses::total         1018                       # number of overall misses
system.cpu0.icache.ReadReq_miss_latency::cpu0.inst     63451818                       # number of ReadReq miss cycles
system.cpu0.icache.ReadReq_miss_latency::total     63451818                       # number of ReadReq miss cycles
system.cpu0.icache.demand_miss_latency::cpu0.inst     63451818                       # number of demand (read+write) miss cycles
system.cpu0.icache.demand_miss_latency::total     63451818                       # number of demand (read+write) miss cycles
system.cpu0.icache.overall_miss_latency::cpu0.inst     63451818                       # number of overall miss cycles
system.cpu0.icache.overall_miss_latency::total     63451818                       # number of overall miss cycles
system.cpu0.icache.ReadReq_accesses::cpu0.inst      1263895                       # number of ReadReq accesses(hits+misses)
system.cpu0.icache.ReadReq_accesses::total      1263895                       # number of ReadReq accesses(hits+misses)
system.cpu0.icache.demand_accesses::cpu0.inst      1263895                       # number of demand (read+write) accesses
system.cpu0.icache.demand_accesses::total      1263895                       # number of demand (read+write) accesses
system.cpu0.icache.overall_accesses::cpu0.inst      1263895                       # number of overall (read+write) accesses
system.cpu0.icache.overall_accesses::total      1263895                       # number of overall (read+write) accesses
system.cpu0.icache.ReadReq_miss_rate::cpu0.inst     0.000805                       # miss rate for ReadReq accesses
system.cpu0.icache.ReadReq_miss_rate::total     0.000805                       # miss rate for ReadReq accesses
system.cpu0.icache.demand_miss_rate::cpu0.inst     0.000805                       # miss rate for demand accesses
system.cpu0.icache.demand_miss_rate::total     0.000805                       # miss rate for demand accesses
system.cpu0.icache.overall_miss_rate::cpu0.inst     0.000805                       # miss rate for overall accesses
system.cpu0.icache.overall_miss_rate::total     0.000805                       # miss rate for overall accesses
system.cpu0.icache.ReadReq_avg_miss_latency::cpu0.inst 62329.880157                       # average ReadReq miss latency
system.cpu0.icache.ReadReq_avg_miss_latency::total 62329.880157                       # average ReadReq miss latency
system.cpu0.icache.demand_avg_miss_latency::cpu0.inst 62329.880157                       # average overall miss latency
system.cpu0.icache.demand_avg_miss_latency::total 62329.880157                       # average overall miss latency
system.cpu0.icache.overall_avg_miss_latency::cpu0.inst 62329.880157                       # average overall miss latency
system.cpu0.icache.overall_avg_miss_latency::total 62329.880157                       # average overall miss latency
system.cpu0.icache.blocked_cycles::no_mshrs         1057                       # number of cycles access was blocked
system.cpu0.icache.blocked_cycles::no_targets            0                       # number of cycles access was blocked
system.cpu0.icache.blocked::no_mshrs               12                       # number of cycles access was blocked
system.cpu0.icache.blocked::no_targets              0                       # number of cycles access was blocked
system.cpu0.icache.avg_blocked_cycles::no_mshrs    88.083333                       # average number of cycles each access was blocked
system.cpu0.icache.avg_blocked_cycles::no_targets          nan                       # average number of cycles each access was blocked
system.cpu0.icache.writebacks::writebacks          287                       # number of writebacks
system.cpu0.icache.writebacks::total              287                       # number of writebacks
system.cpu0.icache.ReadReq_mshr_hits::cpu0.inst          219                       # number of ReadReq MSHR hits
system.cpu0.icache.ReadReq_mshr_hits::total          219                       # number of ReadReq MSHR hits
system.cpu0.icache.demand_mshr_hits::cpu0.inst          219                       # number of demand (read+write) MSHR hits
system.cpu0.icache.demand_mshr_hits::total          219                       # number of demand (read+write) MSHR hits
system.cpu0.icache.overall_mshr_hits::cpu0.inst          219                       # number of overall MSHR hits
system.cpu0.icache.overall_mshr_hits::total          219                       # number of overall MSHR hits
system.cpu0.icache.ReadReq_mshr_misses::cpu0.inst          799                       # number of ReadReq MSHR misses
system.cpu0.icache.ReadReq_mshr_misses::total          799                       # number of ReadReq MSHR misses
system.cpu0.icache.demand_mshr_misses::cpu0.inst          799                       # number of demand (read+write) MSHR misses
system.cpu0.icache.demand_mshr_misses::total          799                       # number of demand (read+write) MSHR misses
system.cpu0.icache.overall_mshr_misses::cpu0.inst          799                       # number of overall MSHR misses
system.cpu0.icache.overall_mshr_misses::total          799                       # number of overall MSHR misses
system.cpu0.icache.ReadReq_mshr_miss_latency::cpu0.inst     51710571                       # number of ReadReq MSHR miss cycles
system.cpu0.icache.ReadReq_mshr_miss_latency::total     51710571                       # number of ReadReq MSHR miss cycles
system.cpu0.icache.demand_mshr_miss_latency::cpu0.inst     51710571                       # number of demand (read+write) MSHR miss cycles
system.cpu0.icache.demand_mshr_miss_latency::total     51710571                       # number of demand (read+write) MSHR miss cycles
system.cpu0.icache.overall_mshr_miss_latency::cpu0.inst     51710571                       # number of overall MSHR miss cycles
system.cpu0.icache.overall_mshr_miss_latency::total     51710571                       # number of overall MSHR miss cycles
system.cpu0.icache.ReadReq_mshr_miss_rate::cpu0.inst     0.000632                       # mshr miss rate for ReadReq accesses
system.cpu0.icache.ReadReq_mshr_miss_rate::total     0.000632                       # mshr miss rate for ReadReq accesses
system.cpu0.icache.demand_mshr_miss_rate::cpu0.inst     0.000632                       # mshr miss rate for demand accesses
system.cpu0.icache.demand_mshr_miss_rate::total     0.000632                       # mshr miss rate for demand accesses
system.cpu0.icache.overall_mshr_miss_rate::cpu0.inst     0.000632                       # mshr miss rate for overall accesses
system.cpu0.icache.overall_mshr_miss_rate::total     0.000632                       # mshr miss rate for overall accesses
system.cpu0.icache.ReadReq_avg_mshr_miss_latency::cpu0.inst 64719.112641                       # average ReadReq mshr miss latency
system.cpu0.icache.ReadReq_avg_mshr_miss_latency::total 64719.112641                       # average ReadReq mshr miss latency
system.cpu0.icache.demand_avg_mshr_miss_latency::cpu0.inst 64719.112641                       # average overall mshr miss latency
system.cpu0.icache.demand_avg_mshr_miss_latency::total 64719.112641                       # average overall mshr miss latency
system.cpu0.icache.overall_avg_mshr_miss_latency::cpu0.inst 64719.112641                       # average overall mshr miss latency
system.cpu0.icache.overall_avg_mshr_miss_latency::total 64719.112641                       # average overall mshr miss latency
system.cpu0.itb_walker_cache.tags.pwrStateResidencyTicks::UNDEFINED   1630162539                       # Cumulative time (in ticks) in various power states
system.cpu0.itb_walker_cache.tags.replacements            0                       # number of replacements
system.cpu0.itb_walker_cache.tags.tagsinuse            0                       # Cycle average of tags in use
system.cpu0.itb_walker_cache.tags.total_refs            0                       # Total number of references to valid blocks.
system.cpu0.itb_walker_cache.tags.sampled_refs            0                       # Sample count of references to valid blocks.
system.cpu0.itb_walker_cache.tags.avg_refs          nan                       # Average number of references to valid blocks.
system.cpu0.itb_walker_cache.tags.warmup_cycle            0                       # Cycle when the warmup percentage was hit.
system.cpu0.itb_walker_cache.tags.tag_accesses            0                       # Number of tag accesses
system.cpu0.itb_walker_cache.tags.data_accesses            0                       # Number of data accesses
system.cpu0.itb_walker_cache.pwrStateResidencyTicks::UNDEFINED   1630162539                       # Cumulative time (in ticks) in various power states
system.cpu0.itb_walker_cache.blocked_cycles::no_mshrs            0                       # number of cycles access was blocked
system.cpu0.itb_walker_cache.blocked_cycles::no_targets            0                       # number of cycles access was blocked
system.cpu0.itb_walker_cache.blocked::no_mshrs            0                       # number of cycles access was blocked
system.cpu0.itb_walker_cache.blocked::no_targets            0                       # number of cycles access was blocked
system.cpu0.itb_walker_cache.avg_blocked_cycles::no_mshrs          nan                       # average number of cycles each access was blocked
system.cpu0.itb_walker_cache.avg_blocked_cycles::no_targets          nan                       # average number of cycles each access was blocked
system.cpu0.l2cache.tags.pwrStateResidencyTicks::UNDEFINED   1630162539                       # Cumulative time (in ticks) in various power states
system.cpu0.l2cache.tags.replacements               5                       # number of replacements
system.cpu0.l2cache.tags.tagsinuse        1934.514354                       # Cycle average of tags in use
system.cpu0.l2cache.tags.total_refs            104491                       # Total number of references to valid blocks.
system.cpu0.l2cache.tags.sampled_refs            2065                       # Sample count of references to valid blocks.
system.cpu0.l2cache.tags.avg_refs           50.600969                       # Average number of references to valid blocks.
system.cpu0.l2cache.tags.warmup_cycle           68000                       # Cycle when the warmup percentage was hit.
system.cpu0.l2cache.tags.occ_blocks::cpu0.inst   740.254351                       # Average occupied blocks per requestor
system.cpu0.l2cache.tags.occ_blocks::cpu0.data  1194.260003                       # Average occupied blocks per requestor
system.cpu0.l2cache.tags.occ_percent::cpu0.inst     0.180726                       # Average percentage of cache occupancy
system.cpu0.l2cache.tags.occ_percent::cpu0.data     0.291567                       # Average percentage of cache occupancy
system.cpu0.l2cache.tags.occ_percent::total     0.472294                       # Average percentage of cache occupancy
system.cpu0.l2cache.tags.occ_task_id_blocks::1024         2060                       # Occupied blocks per task id
system.cpu0.l2cache.tags.age_task_id_blocks_1024::2            3                       # Occupied blocks per task id
system.cpu0.l2cache.tags.age_task_id_blocks_1024::3         2057                       # Occupied blocks per task id
system.cpu0.l2cache.tags.occ_task_id_percent::1024     0.502930                       # Percentage of cache occupancy per task id
system.cpu0.l2cache.tags.tag_accesses          428289                       # Number of tag accesses
system.cpu0.l2cache.tags.data_accesses         428289                       # Number of data accesses
system.cpu0.l2cache.pwrStateResidencyTicks::UNDEFINED   1630162539                       # Cumulative time (in ticks) in various power states
system.cpu0.l2cache.WritebackDirty_hits::writebacks        52375                       # number of WritebackDirty hits
system.cpu0.l2cache.WritebackDirty_hits::total        52375                       # number of WritebackDirty hits
system.cpu0.l2cache.WritebackClean_hits::writebacks          287                       # number of WritebackClean hits
system.cpu0.l2cache.WritebackClean_hits::total          287                       # number of WritebackClean hits
system.cpu0.l2cache.ReadExReq_hits::cpu0.data         4939                       # number of ReadExReq hits
system.cpu0.l2cache.ReadExReq_hits::total         4939                       # number of ReadExReq hits
system.cpu0.l2cache.ReadCleanReq_hits::cpu0.inst           16                       # number of ReadCleanReq hits
system.cpu0.l2cache.ReadCleanReq_hits::total           16                       # number of ReadCleanReq hits
system.cpu0.l2cache.ReadSharedReq_hits::cpu0.data        46771                       # number of ReadSharedReq hits
system.cpu0.l2cache.ReadSharedReq_hits::total        46771                       # number of ReadSharedReq hits
system.cpu0.l2cache.demand_hits::cpu0.inst           16                       # number of demand (read+write) hits
system.cpu0.l2cache.demand_hits::cpu0.data        51710                       # number of demand (read+write) hits
system.cpu0.l2cache.demand_hits::total          51726                       # number of demand (read+write) hits
system.cpu0.l2cache.overall_hits::cpu0.inst           16                       # number of overall hits
system.cpu0.l2cache.overall_hits::cpu0.data        51710                       # number of overall hits
system.cpu0.l2cache.overall_hits::total         51726                       # number of overall hits
system.cpu0.l2cache.ReadExReq_misses::cpu0.data         1173                       # number of ReadExReq misses
system.cpu0.l2cache.ReadExReq_misses::total         1173                       # number of ReadExReq misses
system.cpu0.l2cache.ReadCleanReq_misses::cpu0.inst          783                       # number of ReadCleanReq misses
system.cpu0.l2cache.ReadCleanReq_misses::total          783                       # number of ReadCleanReq misses
system.cpu0.l2cache.ReadSharedReq_misses::cpu0.data          109                       # number of ReadSharedReq misses
system.cpu0.l2cache.ReadSharedReq_misses::total          109                       # number of ReadSharedReq misses
system.cpu0.l2cache.demand_misses::cpu0.inst          783                       # number of demand (read+write) misses
system.cpu0.l2cache.demand_misses::cpu0.data         1282                       # number of demand (read+write) misses
system.cpu0.l2cache.demand_misses::total         2065                       # number of demand (read+write) misses
system.cpu0.l2cache.overall_misses::cpu0.inst          783                       # number of overall misses
[...]
system.l3.demand_mshr_miss_latency::cpu0.data     60290550                       # number of demand (read+write) MSHR miss cycles
system.l3.demand_mshr_miss_latency::cpu1.inst     38696787                       # number of demand (read+write) MSHR miss cycles
system.l3.demand_mshr_miss_latency::cpu1.data     60112087                       # number of demand (read+write) MSHR miss cycles
system.l3.demand_mshr_miss_latency::cpu2.inst     40593147                       # number of demand (read+write) MSHR miss cycles
system.l3.demand_mshr_miss_latency::cpu2.data     58051198                       # number of demand (read+write) MSHR miss cycles
system.l3.demand_mshr_miss_latency::cpu3.inst     40904575                       # number of demand (read+write) MSHR miss cycles
system.l3.demand_mshr_miss_latency::cpu3.data     58820403                       # number of demand (read+write) MSHR miss cycles
system.l3.demand_mshr_miss_latency::total    397437742                       # number of demand (read+write) MSHR miss cycles
system.l3.overall_mshr_miss_latency::cpu0.inst     39968995                       # number of overall MSHR miss cycles
system.l3.overall_mshr_miss_latency::cpu0.data     60290550                       # number of overall MSHR miss cycles
system.l3.overall_mshr_miss_latency::cpu1.inst     38696787                       # number of overall MSHR miss cycles
system.l3.overall_mshr_miss_latency::cpu1.data     60112087                       # number of overall MSHR miss cycles
system.l3.overall_mshr_miss_latency::cpu2.inst     40593147                       # number of overall MSHR miss cycles
system.l3.overall_mshr_miss_latency::cpu2.data     58051198                       # number of overall MSHR miss cycles
system.l3.overall_mshr_miss_latency::cpu3.inst     40904575                       # number of overall MSHR miss cycles
system.l3.overall_mshr_miss_latency::cpu3.data     58820403                       # number of overall MSHR miss cycles
system.l3.overall_mshr_miss_latency::total    397437742                       # number of overall MSHR miss cycles
system.l3.ReadExReq_mshr_miss_rate::cpu0.data            1                       # mshr miss rate for ReadExReq accesses
system.l3.ReadExReq_mshr_miss_rate::cpu1.data            1                       # mshr miss rate for ReadExReq accesses
system.l3.ReadExReq_mshr_miss_rate::cpu2.data            1                       # mshr miss rate for ReadExReq accesses
system.l3.ReadExReq_mshr_miss_rate::cpu3.data            1                       # mshr miss rate for ReadExReq accesses
system.l3.ReadExReq_mshr_miss_rate::total            1                       # mshr miss rate for ReadExReq accesses
system.l3.ReadSharedReq_mshr_miss_rate::cpu0.inst            1                       # mshr miss rate for ReadSharedReq accesses
system.l3.ReadSharedReq_mshr_miss_rate::cpu0.data            1                       # mshr miss rate for ReadSharedReq accesses
system.l3.ReadSharedReq_mshr_miss_rate::cpu1.inst            1                       # mshr miss rate for ReadSharedReq accesses
system.l3.ReadSharedReq_mshr_miss_rate::cpu1.data            1                       # mshr miss rate for ReadSharedReq accesses
system.l3.ReadSharedReq_mshr_miss_rate::cpu2.inst            1                       # mshr miss rate for ReadSharedReq accesses
system.l3.ReadSharedReq_mshr_miss_rate::cpu2.data            1                       # mshr miss rate for ReadSharedReq accesses
system.l3.ReadSharedReq_mshr_miss_rate::cpu3.inst            1                       # mshr miss rate for ReadSharedReq accesses
system.l3.ReadSharedReq_mshr_miss_rate::cpu3.data            1                       # mshr miss rate for ReadSharedReq accesses
system.l3.ReadSharedReq_mshr_miss_rate::total            1                       # mshr miss rate for ReadSharedReq accesses
system.l3.demand_mshr_miss_rate::cpu0.inst            1                       # mshr miss rate for demand accesses
system.l3.demand_mshr_miss_rate::cpu0.data            1                       # mshr miss rate for demand accesses
system.l3.demand_mshr_miss_rate::cpu1.inst            1                       # mshr miss rate for demand accesses
system.l3.demand_mshr_miss_rate::cpu1.data            1                       # mshr miss rate for demand accesses
system.l3.demand_mshr_miss_rate::cpu2.inst            1                       # mshr miss rate for demand accesses
system.l3.demand_mshr_miss_rate::cpu2.data            1                       # mshr miss rate for demand accesses
system.l3.demand_mshr_miss_rate::cpu3.inst            1                       # mshr miss rate for demand accesses
system.l3.demand_mshr_miss_rate::cpu3.data            1                       # mshr miss rate for demand accesses
system.l3.demand_mshr_miss_rate::total              1                       # mshr miss rate for demand accesses
system.l3.overall_mshr_miss_rate::cpu0.inst            1                       # mshr miss rate for overall accesses
system.l3.overall_mshr_miss_rate::cpu0.data            1                       # mshr miss rate for overall accesses
system.l3.overall_mshr_miss_rate::cpu1.inst            1                       # mshr miss rate for overall accesses
system.l3.overall_mshr_miss_rate::cpu1.data            1                       # mshr miss rate for overall accesses
system.l3.overall_mshr_miss_rate::cpu2.inst            1                       # mshr miss rate for overall accesses
system.l3.overall_mshr_miss_rate::cpu2.data            1                       # mshr miss rate for overall accesses
system.l3.overall_mshr_miss_rate::cpu3.inst            1                       # mshr miss rate for overall accesses
system.l3.overall_mshr_miss_rate::cpu3.data            1                       # mshr miss rate for overall accesses
system.l3.overall_mshr_miss_rate::total             1                       # mshr miss rate for overall accesses
system.l3.ReadExReq_avg_mshr_miss_latency::cpu0.data 45300.985507                       # average ReadExReq mshr miss latency
system.l3.ReadExReq_avg_mshr_miss_latency::cpu1.data 44585.097956                       # average ReadExReq mshr miss latency
system.l3.ReadExReq_avg_mshr_miss_latency::cpu2.data 42531.826939                       # average ReadExReq mshr miss latency
system.l3.ReadExReq_avg_mshr_miss_latency::cpu3.data 42803.634583                       # average ReadExReq mshr miss latency
system.l3.ReadExReq_avg_mshr_miss_latency::total 43805.338943                       # average ReadExReq mshr miss latency
system.l3.ReadSharedReq_avg_mshr_miss_latency::cpu0.inst 51045.970626                       # average ReadSharedReq mshr miss latency
system.l3.ReadSharedReq_avg_mshr_miss_latency::cpu0.data 65619.211009                       # average ReadSharedReq mshr miss latency
system.l3.ReadSharedReq_avg_mshr_miss_latency::cpu1.inst 49674.951220                       # average ReadSharedReq mshr miss latency
system.l3.ReadSharedReq_avg_mshr_miss_latency::cpu1.data 72609.177570                       # average ReadSharedReq mshr miss latency
system.l3.ReadSharedReq_avg_mshr_miss_latency::cpu2.inst 51579.602287                       # average ReadSharedReq mshr miss latency
system.l3.ReadSharedReq_avg_mshr_miss_latency::cpu2.data 74874.908257                       # average ReadSharedReq mshr miss latency
system.l3.ReadSharedReq_avg_mshr_miss_latency::cpu3.inst 52307.640665                       # average ReadSharedReq mshr miss latency
system.l3.ReadSharedReq_avg_mshr_miss_latency::cpu3.data 80839.018868                       # average ReadSharedReq mshr miss latency
system.l3.ReadSharedReq_avg_mshr_miss_latency::total 53850.500000                       # average ReadSharedReq mshr miss latency
system.l3.demand_avg_mshr_miss_latency::cpu0.inst 51045.970626                       # average overall mshr miss latency
system.l3.demand_avg_mshr_miss_latency::cpu0.data 47028.510140                       # average overall mshr miss latency
system.l3.demand_avg_mshr_miss_latency::cpu1.inst 49674.951220                       # average overall mshr miss latency
system.l3.demand_avg_mshr_miss_latency::cpu1.data 46925.907104                       # average overall mshr miss latency
system.l3.demand_avg_mshr_miss_latency::cpu2.inst 51579.602287                       # average overall mshr miss latency
system.l3.demand_avg_mshr_miss_latency::cpu2.data 45281.745710                       # average overall mshr miss latency
system.l3.demand_avg_mshr_miss_latency::cpu3.inst 52307.640665                       # average overall mshr miss latency
system.l3.demand_avg_mshr_miss_latency::cpu3.data 45953.439844                       # average overall mshr miss latency
system.l3.demand_avg_mshr_miss_latency::total 48139.261386                       # average overall mshr miss latency
system.l3.overall_avg_mshr_miss_latency::cpu0.inst 51045.970626                       # average overall mshr miss latency
system.l3.overall_avg_mshr_miss_latency::cpu0.data 47028.510140                       # average overall mshr miss latency
system.l3.overall_avg_mshr_miss_latency::cpu1.inst 49674.951220                       # average overall mshr miss latency
system.l3.overall_avg_mshr_miss_latency::cpu1.data 46925.907104                       # average overall mshr miss latency
system.l3.overall_avg_mshr_miss_latency::cpu2.inst 51579.602287                       # average overall mshr miss latency
system.l3.overall_avg_mshr_miss_latency::cpu2.data 45281.745710                       # average overall mshr miss latency
system.l3.overall_avg_mshr_miss_latency::cpu3.inst 52307.640665                       # average overall mshr miss latency
system.l3.overall_avg_mshr_miss_latency::cpu3.data 45953.439844                       # average overall mshr miss latency
system.l3.overall_avg_mshr_miss_latency::total 48139.261386                       # average overall mshr miss latency
system.membus.snoop_filter.tot_requests          8256                       # Total number of requests made to the snoop filter.
system.membus.snoop_filter.hit_single_requests            0                       # Number of requests hitting in the snoop filter with a single holder of the requested data.
system.membus.snoop_filter.hit_multi_requests            0                       # Number of requests hitting in the snoop filter with multiple (>1) holders of the requested data.
system.membus.snoop_filter.tot_snoops               0                       # Total number of snoops made to the snoop filter.
system.membus.snoop_filter.hit_single_snoops            0                       # Number of snoops hitting in the snoop filter with a single holder of the requested data.
system.membus.snoop_filter.hit_multi_snoops            0                       # Number of snoops hitting in the snoop filter with multiple (>1) holders of the requested data.
system.membus.pwrStateResidencyTicks::UNDEFINED   1630162539                       # Cumulative time (in ticks) in various power states
system.membus.trans_dist::ReadResp               3562                       # Transaction distribution
system.membus.trans_dist::ReadExReq              4694                       # Transaction distribution
system.membus.trans_dist::ReadExResp             4694                       # Transaction distribution
system.membus.trans_dist::ReadSharedReq          3562                       # Transaction distribution
system.membus.pkt_count_system.l3.mem_side::system.mem_ctrls.port        16512                       # Packet count per connected master and slave (bytes)
system.membus.pkt_count_system.l3.mem_side::total        16512                       # Packet count per connected master and slave (bytes)
system.membus.pkt_count::total                  16512                       # Packet count per connected master and slave (bytes)
system.membus.pkt_size_system.l3.mem_side::system.mem_ctrls.port       528384                       # Cumulative packet size per connected master and slave (bytes)
system.membus.pkt_size_system.l3.mem_side::total       528384                       # Cumulative packet size per connected master and slave (bytes)
system.membus.pkt_size::total                  528384                       # Cumulative packet size per connected master and slave (bytes)
system.membus.snoops                                0                       # Total snoops (count)
system.membus.snoopTraffic                          0                       # Total snoop traffic (bytes)
system.membus.snoop_fanout::samples              8256                       # Request fanout histogram
system.membus.snoop_fanout::mean                    0                       # Request fanout histogram
system.membus.snoop_fanout::stdev                   0                       # Request fanout histogram
system.membus.snoop_fanout::underflows              0      0.00%      0.00% # Request fanout histogram
system.membus.snoop_fanout::0                    8256    100.00%    100.00% # Request fanout histogram
system.membus.snoop_fanout::1                       0      0.00%    100.00% # Request fanout histogram
system.membus.snoop_fanout::overflows               0      0.00%    100.00% # Request fanout histogram
system.membus.snoop_fanout::min_value               0                       # Request fanout histogram
system.membus.snoop_fanout::max_value               0                       # Request fanout histogram
system.membus.snoop_fanout::total                8256                       # Request fanout histogram
system.membus.reqLayer8.occupancy            10866912                       # Layer occupancy (ticks)
system.membus.reqLayer8.utilization               0.7                       # Layer utilization (%)
system.membus.respLayer1.occupancy           44164888                       # Layer occupancy (ticks)
system.membus.respLayer1.utilization              2.7                       # Layer utilization (%)
system.tol3bus.snoop_filter.tot_requests         8273                       # Total number of requests made to the snoop filter.
system.tol3bus.snoop_filter.hit_single_requests           17                       # Number of requests hitting in the snoop filter with a single holder of the requested data.
system.tol3bus.snoop_filter.hit_multi_requests            0                       # Number of requests hitting in the snoop filter with multiple (>1) holders of the requested data.
system.tol3bus.snoop_filter.tot_snoops              0                       # Total number of snoops made to the snoop filter.
system.tol3bus.snoop_filter.hit_single_snoops            0                       # Number of snoops hitting in the snoop filter with a single holder of the requested data.
system.tol3bus.snoop_filter.hit_multi_snoops            0                       # Number of snoops hitting in the snoop filter with multiple (>1) holders of the requested data.
system.tol3bus.pwrStateResidencyTicks::UNDEFINED   1630162539                       # Cumulative time (in ticks) in various power states
system.tol3bus.trans_dist::ReadResp              3562                       # Transaction distribution
system.tol3bus.trans_dist::WritebackDirty            4                       # Transaction distribution
system.tol3bus.trans_dist::CleanEvict              13                       # Transaction distribution
system.tol3bus.trans_dist::ReadExReq             4694                       # Transaction distribution
system.tol3bus.trans_dist::ReadExResp            4694                       # Transaction distribution
system.tol3bus.trans_dist::ReadSharedReq         3562                       # Transaction distribution
system.tol3bus.pkt_count_system.cpu0.l2cache.mem_side::system.l3.cpu_side         4133                       # Packet count per connected master and slave (bytes)
system.tol3bus.pkt_count_system.cpu1.l2cache.mem_side::system.l3.cpu_side         4127                       # Packet count per connected master and slave (bytes)
system.tol3bus.pkt_count_system.cpu2.l2cache.mem_side::system.l3.cpu_side         4141                       # Packet count per connected master and slave (bytes)
system.tol3bus.pkt_count_system.cpu3.l2cache.mem_side::system.l3.cpu_side         4128                       # Packet count per connected master and slave (bytes)
system.tol3bus.pkt_count::total                 16529                       # Packet count per connected master and slave (bytes)
system.tol3bus.pkt_size_system.cpu0.l2cache.mem_side::system.l3.cpu_side       132224                       # Cumulative packet size per connected master and slave (bytes)
system.tol3bus.pkt_size_system.cpu1.l2cache.mem_side::system.l3.cpu_side       131904                       # Cumulative packet size per connected master and slave (bytes)
system.tol3bus.pkt_size_system.cpu2.l2cache.mem_side::system.l3.cpu_side       132480                       # Cumulative packet size per connected master and slave (bytes)
system.tol3bus.pkt_size_system.cpu3.l2cache.mem_side::system.l3.cpu_side       132032                       # Cumulative packet size per connected master and slave (bytes)
system.tol3bus.pkt_size::total                 528640                       # Cumulative packet size per connected master and slave (bytes)
system.tol3bus.snoops                               0                       # Total snoops (count)
system.tol3bus.snoopTraffic                         0                       # Total snoop traffic (bytes)
system.tol3bus.snoop_fanout::samples             8256                       # Request fanout histogram
system.tol3bus.snoop_fanout::mean                   0                       # Request fanout histogram
system.tol3bus.snoop_fanout::stdev                  0                       # Request fanout histogram
system.tol3bus.snoop_fanout::underflows             0      0.00%      0.00% # Request fanout histogram
system.tol3bus.snoop_fanout::0                   8256    100.00%    100.00% # Request fanout histogram
system.tol3bus.snoop_fanout::1                      0      0.00%    100.00% # Request fanout histogram
system.tol3bus.snoop_fanout::2                      0      0.00%    100.00% # Request fanout histogram
system.tol3bus.snoop_fanout::3                      0      0.00%    100.00% # Request fanout histogram
system.tol3bus.snoop_fanout::4                      0      0.00%    100.00% # Request fanout histogram
system.tol3bus.snoop_fanout::overflows              0      0.00%    100.00% # Request fanout histogram
system.tol3bus.snoop_fanout::min_value              0                       # Request fanout histogram
system.tol3bus.snoop_fanout::max_value              0                       # Request fanout histogram
system.tol3bus.snoop_fanout::total               8256                       # Request fanout histogram
system.tol3bus.reqLayer0.occupancy           12254380                       # Layer occupancy (ticks)
system.tol3bus.reqLayer0.utilization              0.8                       # Layer utilization (%)
system.tol3bus.respLayer0.occupancy           6554520                       # Layer occupancy (ticks)
system.tol3bus.respLayer0.utilization             0.4                       # Layer utilization (%)
system.tol3bus.respLayer1.occupancy           6534660                       # Layer occupancy (ticks)
system.tol3bus.respLayer1.utilization             0.4                       # Layer utilization (%)
system.tol3bus.respLayer2.occupancy           6563718                       # Layer occupancy (ticks)
system.tol3bus.respLayer2.utilization             0.4                       # Layer utilization (%)
system.tol3bus.respLayer3.occupancy           6543676                       # Layer occupancy (ticks)
system.tol3bus.respLayer3.utilization             0.4                       # Layer utilization (%)

---------- End Simulation Statistics   ----------
