
---------- Begin Simulation Statistics ----------
sim_seconds                                  0.000068                       # Number of seconds simulated
sim_ticks                                    67796802                       # Number of ticks simulated
final_tick                                   67796802                       # Number of ticks from beginning of simulation (restored from checkpoints and never reset)
sim_freq                                 1000000000000                       # Frequency of simulated ticks
host_inst_rate                                  50652                       # Simulator instruction rate (inst/s)
host_op_rate                                   100990                       # Simulator op (including micro ops) rate (op/s)
host_tick_rate                               28447291                       # Simulator tick rate (ticks/s)
host_mem_usage                                8779356                       # Number of bytes of host memory used
host_seconds                                     2.38                       # Real time elapsed on the host
sim_insts                                      120715                       # Number of instructions simulated
sim_ops                                        240683                       # Number of ops (including micro ops) simulated
system.voltage_domain.voltage                       1                       # Voltage in Volts
system.clk_domain.clock                          1000                       # Clock period in ticks
system.mem_ctrls.pwrStateResidencyTicks::UNDEFINED     67796802                       # Cumulative time (in ticks) in various power states
system.mem_ctrls.bytes_read::cpu0.inst          48000                       # Number of bytes read from this memory
system.mem_ctrls.bytes_read::cpu0.data          40768                       # Number of bytes read from this memory
system.mem_ctrls.bytes_read::cpu1.inst          48064                       # Number of bytes read from this memory
system.mem_ctrls.bytes_read::cpu1.data          41344                       # Number of bytes read from this memory
system.mem_ctrls.bytes_read::cpu2.inst          48192                       # Number of bytes read from this memory
system.mem_ctrls.bytes_read::cpu2.data          39744                       # Number of bytes read from this memory
system.mem_ctrls.bytes_read::cpu3.inst          47744                       # Number of bytes read from this memory
system.mem_ctrls.bytes_read::cpu3.data          39168                       # Number of bytes read from this memory
system.mem_ctrls.bytes_read::total             353024                       # Number of bytes read from this memory
system.mem_ctrls.bytes_inst_read::cpu0.inst        48000                       # Number of instructions bytes read from this memory
system.mem_ctrls.bytes_inst_read::cpu1.inst        48064                       # Number of instructions bytes read from this memory
system.mem_ctrls.bytes_inst_read::cpu2.inst        48192                       # Number of instructions bytes read from this memory
system.mem_ctrls.bytes_inst_read::cpu3.inst        47744                       # Number of instructions bytes read from this memory
system.mem_ctrls.bytes_inst_read::total        192000                       # Number of instructions bytes read from this memory
system.mem_ctrls.num_reads::cpu0.inst             750                       # Number of read requests responded to by this memory
system.mem_ctrls.num_reads::cpu0.data             637                       # Number of read requests responded to by this memory
system.mem_ctrls.num_reads::cpu1.inst             751                       # Number of read requests responded to by this memory
system.mem_ctrls.num_reads::cpu1.data             646                       # Number of read requests responded to by this memory
system.mem_ctrls.num_reads::cpu2.inst             753                       # Number of read requests responded to by this memory
system.mem_ctrls.num_reads::cpu2.data             621                       # Number of read requests responded to by this memory
system.mem_ctrls.num_reads::cpu3.inst             746                       # Number of read requests responded to by this memory
system.mem_ctrls.num_reads::cpu3.data             612                       # Number of read requests responded to by this memory
system.mem_ctrls.num_reads::total                5516                       # Number of read requests responded to by this memory
system.mem_ctrls.bw_read::cpu0.inst         707997997                       # Total read bandwidth from this memory (bytes/s)
system.mem_ctrls.bw_read::cpu0.data         601326299                       # Total read bandwidth from this memory (bytes/s)
system.mem_ctrls.bw_read::cpu1.inst         708941994                       # Total read bandwidth from this memory (bytes/s)
system.mem_ctrls.bw_read::cpu1.data         609822275                       # Total read bandwidth from this memory (bytes/s)
system.mem_ctrls.bw_read::cpu2.inst         710829989                       # Total read bandwidth from this memory (bytes/s)
system.mem_ctrls.bw_read::cpu2.data         586222341                       # Total read bandwidth from this memory (bytes/s)
system.mem_ctrls.bw_read::cpu3.inst         704222007                       # Total read bandwidth from this memory (bytes/s)
system.mem_ctrls.bw_read::cpu3.data         577726365                       # Total read bandwidth from this memory (bytes/s)
system.mem_ctrls.bw_read::total            5207089267                       # Total read bandwidth from this memory (bytes/s)
system.mem_ctrls.bw_inst_read::cpu0.inst    707997997                       # Instruction read bandwidth from this memory (bytes/s)
system.mem_ctrls.bw_inst_read::cpu1.inst    708941994                       # Instruction read bandwidth from this memory (bytes/s)
system.mem_ctrls.bw_inst_read::cpu2.inst    710829989                       # Instruction read bandwidth from this memory (bytes/s)
system.mem_ctrls.bw_inst_read::cpu3.inst    704222007                       # Instruction read bandwidth from this memory (bytes/s)
system.mem_ctrls.bw_inst_read::total       2831991987                       # Instruction read bandwidth from this memory (bytes/s)
system.mem_ctrls.bw_total::cpu0.inst        707997997                       # Total bandwidth to/from this memory (bytes/s)
system.mem_ctrls.bw_total::cpu0.data        601326299                       # Total bandwidth to/from this memory (bytes/s)
system.mem_ctrls.bw_total::cpu1.inst        708941994                       # Total bandwidth to/from this memory (bytes/s)
system.mem_ctrls.bw_total::cpu1.data        609822275                       # Total bandwidth to/from this memory (bytes/s)
system.mem_ctrls.bw_total::cpu2.inst        710829989                       # Total bandwidth to/from this memory (bytes/s)
system.mem_ctrls.bw_total::cpu2.data        586222341                       # Total bandwidth to/from this memory (bytes/s)
system.mem_ctrls.bw_total::cpu3.inst        704222007                       # Total bandwidth to/from this memory (bytes/s)
system.mem_ctrls.bw_total::cpu3.data        577726365                       # Total bandwidth to/from this memory (bytes/s)
system.mem_ctrls.bw_total::total           5207089267                       # Total bandwidth to/from this memory (bytes/s)
system.pwrStateResidencyTicks::UNDEFINED     67796802                       # Cumulative time (in ticks) in various power states
system.cpu0.branchPred.lookups                  16654                       # Number of BP lookups
system.cpu0.branchPred.condPredicted            16654                       # Number of conditional branches predicted
system.cpu0.branchPred.condIncorrect             2163                       # Number of conditional branches incorrect
system.cpu0.branchPred.BTBLookups               15204                       # Number of BTB lookups
system.cpu0.branchPred.BTBHits                      0                       # Number of BTB hits
system.cpu0.branchPred.BTBCorrect                   0                       # Number of correct BTB predictions (this stat may not work properly.
system.cpu0.branchPred.BTBHitPct             0.000000                       # BTB Hit Percentage
system.cpu0.branchPred.usedRAS                   1088                       # Number of times the RAS was used to get a target.
system.cpu0.branchPred.RASInCorrect               288                       # Number of incorrect RAS predictions.
system.cpu0.branchPred.indirectLookups          15204                       # Number of indirect predictor lookups.
system.cpu0.branchPred.indirectHits              3438                       # Number of indirect target hits.
system.cpu0.branchPred.indirectMisses           11766                       # Number of indirect misses.
system.cpu0.branchPredindirectMispredicted         1685                       # Number of mispredicted indirect branches.
system.cpu_voltage_domain.voltage                   1                       # Voltage in Volts
system.cpu_clk_domain.clock                       333                       # Clock period in ticks
system.cpu0.dtb.walker.pwrStateResidencyTicks::UNDEFINED     67796802                       # Cumulative time (in ticks) in various power states
system.cpu0.dtb.rdAccesses                      10443                       # TLB accesses on read requests
system.cpu0.dtb.wrAccesses                       9944                       # TLB accesses on write requests
system.cpu0.dtb.rdMisses                          233                       # TLB misses on read requests
system.cpu0.dtb.wrMisses                           58                       # TLB misses on write requests
system.cpu0.apic_clk_domain.clock                5328                       # Clock period in ticks
system.cpu0.interrupts.pwrStateResidencyTicks::UNDEFINED     67796802                       # Cumulative time (in ticks) in various power states
system.cpu0.itb.walker.pwrStateResidencyTicks::UNDEFINED     67796802                       # Cumulative time (in ticks) in various power states
system.cpu0.itb.rdAccesses                          0                       # TLB accesses on read requests
system.cpu0.itb.wrAccesses                      11173                       # TLB accesses on write requests
system.cpu0.itb.rdMisses                            0                       # TLB misses on read requests
system.cpu0.itb.wrMisses                          160                       # TLB misses on write requests
system.cpu0.workload.numSyscalls                   25                       # Number of system calls
system.cpu0.pwrStateResidencyTicks::ON       67796802                       # Cumulative time (in ticks) in various power states
system.cpu0.numCycles                          203595                       # number of cpu cycles simulated
system.cpu0.numWorkItemsStarted                     0                       # number of work items this cpu started
system.cpu0.numWorkItemsCompleted                   0                       # number of work items this cpu completed
system.cpu0.fetch.icacheStallCycles             32699                       # Number of cycles fetch is stalled on an Icache miss
system.cpu0.fetch.Insts                         74979                       # Number of instructions fetch has processed
system.cpu0.fetch.Branches                      16654                       # Number of branches that fetch encountered
system.cpu0.fetch.predictedBranches              4526                       # Number of branches that fetch has predicted taken
system.cpu0.fetch.Cycles                       102704                       # Number of cycles fetch has run and was not squashing or blocked
system.cpu0.fetch.SquashCycles                   4498                       # Number of cycles fetch has spent squashing
system.cpu0.fetch.MiscStallCycles                  75                       # Number of cycles fetch has spent waiting on interrupts, or bad addresses, or out of MSHRs
system.cpu0.fetch.PendingTrapStallCycles          464                       # Number of stall cycles due to pending traps
system.cpu0.fetch.PendingQuiesceStallCycles            6                       # Number of stall cycles due to pending quiesce instructions
system.cpu0.fetch.IcacheWaitRetryStallCycles          256                       # Number of stall cycles due to full MSHR
system.cpu0.fetch.CacheLines                    11076                       # Number of cache lines fetched
system.cpu0.fetch.IcacheSquashes                  915                       # Number of outstanding Icache misses that were squashed
system.cpu0.fetch.rateDist::samples            138453                       # Number of instructions fetched each cycle (Total)
system.cpu0.fetch.rateDist::mean             1.063841                       # Number of instructions fetched each cycle (Total)
system.cpu0.fetch.rateDist::stdev            2.571550                       # Number of instructions fetched each cycle (Total)
system.cpu0.fetch.rateDist::underflows              0      0.00%      0.00% # Number of instructions fetched each cycle (Total)
system.cpu0.fetch.rateDist::0                  115629     83.51%     83.51% # Number of instructions fetched each cycle (Total)
system.cpu0.fetch.rateDist::1                    1356      0.98%     84.49% # Number of instructions fetched each cycle (Total)
system.cpu0.fetch.rateDist::2                    1073      0.77%     85.27% # Number of instructions fetched each cycle (Total)
system.cpu0.fetch.rateDist::3                    1338      0.97%     86.24% # Number of instructions fetched each cycle (Total)
system.cpu0.fetch.rateDist::4                    1297      0.94%     87.17% # Number of instructions fetched each cycle (Total)
system.cpu0.fetch.rateDist::5                    1050      0.76%     87.93% # Number of instructions fetched each cycle (Total)
system.cpu0.fetch.rateDist::6                    1629      1.18%     89.11% # Number of instructions fetched each cycle (Total)
system.cpu0.fetch.rateDist::7                    1084      0.78%     89.89% # Number of instructions fetched each cycle (Total)
system.cpu0.fetch.rateDist::8                   13997     10.11%    100.00% # Number of instructions fetched each cycle (Total)
system.cpu0.fetch.rateDist::overflows               0      0.00%    100.00% # Number of instructions fetched each cycle (Total)
system.cpu0.fetch.rateDist::min_value               0                       # Number of instructions fetched each cycle (Total)
system.cpu0.fetch.rateDist::max_value               8                       # Number of instructions fetched each cycle (Total)
system.cpu0.fetch.rateDist::total              138453                       # Number of instructions fetched each cycle (Total)
system.cpu0.fetch.branchRate                 0.081800                       # Number of branch fetches per cycle
system.cpu0.fetch.rate                       0.368275                       # Number of inst fetches per cycle
system.cpu0.decode.IdleCycles                   28683                       # Number of cycles decode is idle
system.cpu0.decode.BlockedCycles                87767                       # Number of cycles decode is blocked
system.cpu0.decode.RunCycles                    17518                       # Number of cycles decode is running
system.cpu0.decode.UnblockCycles                 2236                       # Number of cycles decode is unblocking
system.cpu0.decode.SquashCycles                  2249                       # Number of cycles decode is squashing
system.cpu0.decode.DecodedInsts                135821                       # Number of instructions handled by decode
system.cpu0.rename.SquashCycles                  2249                       # Number of cycles rename is squashing
system.cpu0.rename.IdleCycles                   30080                       # Number of cycles rename is idle
system.cpu0.rename.BlockCycles                  40500                       # Number of cycles rename is blocking
system.cpu0.rename.serializeStallCycles          3422                       # count of cycles rename stalled for serializing inst
system.cpu0.rename.RunCycles                    18188                       # Number of cycles rename is running
system.cpu0.rename.UnblockCycles                44014                       # Number of cycles rename is unblocking
system.cpu0.rename.RenamedInsts                127837                       # Number of instructions processed by rename
system.cpu0.rename.ROBFullEvents                   63                       # Number of times rename has blocked due to ROB full
system.cpu0.rename.IQFullEvents                   283                       # Number of times rename has blocked due to IQ full
system.cpu0.rename.LQFullEvents                   205                       # Number of times rename has blocked due to LQ full
system.cpu0.rename.SQFullEvents                 43329                       # Number of times rename has blocked due to SQ full
system.cpu0.rename.RenamedOperands             135957                       # Number of destination operands rename has renamed
system.cpu0.rename.RenameLookups               320117                       # Number of register rename lookups that rename has made
system.cpu0.rename.int_rename_lookups          188116                       # Number of integer rename lookups
system.cpu0.rename.fp_rename_lookups             5546                       # Number of floating rename lookups
system.cpu0.rename.CommittedMaps                63741                       # Number of HB maps that are committed
system.cpu0.rename.UndoneMaps                   72216                       # Number of HB maps that are undone due to squashing
system.cpu0.rename.serializingInsts                79                       # count of serializing insts renamed
system.cpu0.rename.tempSerializingInsts            75                       # count of temporary serializing insts renamed
system.cpu0.rename.skidInsts                     7711                       # count of insts added to the skid buffer
system.cpu0.memDep0.insertedLoads               13310                       # Number of loads inserted to the mem dependence unit.
system.cpu0.memDep0.insertedStores              12471                       # Number of stores inserted to the mem dependence unit.
system.cpu0.memDep0.conflictingLoads              536                       # Number of conflicting loads.
system.cpu0.memDep0.conflictingStores             457                       # Number of conflicting stores.
system.cpu0.iq.iqInstsAdded                    111888                       # Number of instructions added to the IQ (excludes non-spec)
system.cpu0.iq.iqNonSpecInstsAdded                384                       # Number of non-speculative instructions added to the IQ
system.cpu0.iq.iqInstsIssued                    95990                       # Number of instructions issued
system.cpu0.iq.iqSquashedInstsIssued              701                       # Number of squashed instructions issued
system.cpu0.iq.iqSquashedInstsExamined          51909                       # Number of squashed instructions iterated over during squash; mainly for profiling
system.cpu0.iq.iqSquashedOperandsExamined        70431                       # Number of squashed operands that are examined and possibly removed from graph
system.cpu0.iq.iqSquashedNonSpecRemoved           347                       # Number of squashed non-spec instructions that were removed
system.cpu0.iq.issued_per_cycle::samples       138453                       # Number of insts issued each cycle
system.cpu0.iq.issued_per_cycle::mean        0.693304                       # Number of insts issued each cycle
system.cpu0.iq.issued_per_cycle::stdev       1.720956                       # Number of insts issued each cycle
system.cpu0.iq.issued_per_cycle::underflows            0      0.00%      0.00% # Number of insts issued each cycle
system.cpu0.iq.issued_per_cycle::0             111669     80.65%     80.65% # Number of insts issued each cycle
system.cpu0.iq.issued_per_cycle::1               7147      5.16%     85.82% # Number of insts issued each cycle
system.cpu0.iq.issued_per_cycle::2               3792      2.74%     88.56% # Number of insts issued each cycle
system.cpu0.iq.issued_per_cycle::3               2848      2.06%     90.61% # Number of insts issued each cycle
system.cpu0.iq.issued_per_cycle::4               3336      2.41%     93.02% # Number of insts issued each cycle
system.cpu0.iq.issued_per_cycle::5               3315      2.39%     95.42% # Number of insts issued each cycle
system.cpu0.iq.issued_per_cycle::6               2920      2.11%     97.53% # Number of insts issued each cycle
system.cpu0.iq.issued_per_cycle::7               2132      1.54%     99.07% # Number of insts issued each cycle
system.cpu0.iq.issued_per_cycle::8               1294      0.93%    100.00% # Number of insts issued each cycle
system.cpu0.iq.issued_per_cycle::overflows            0      0.00%    100.00% # Number of insts issued each cycle
system.cpu0.iq.issued_per_cycle::min_value            0                       # Number of insts issued each cycle
system.cpu0.iq.issued_per_cycle::max_value            8                       # Number of insts issued each cycle
system.cpu0.iq.issued_per_cycle::total         138453                       # Number of insts issued each cycle
system.cpu0.iq.fu_full::No_OpClass                  0      0.00%      0.00% # attempts to use FU when none available
system.cpu0.iq.fu_full::IntAlu                   1288     83.37%     83.37% # attempts to use FU when none available
system.cpu0.iq.fu_full::IntMult                     0      0.00%     83.37% # attempts to use FU when none available
system.cpu0.iq.fu_full::IntDiv                      0      0.00%     83.37% # attempts to use FU when none available
system.cpu0.iq.fu_full::FloatAdd                   14      0.91%     84.27% # attempts to use FU when none available
system.cpu0.iq.fu_full::FloatCmp                    0      0.00%     84.27% # attempts to use FU when none available
system.cpu0.iq.fu_full::FloatCvt                    0      0.00%     84.27% # attempts to use FU when none available
system.cpu0.iq.fu_full::FloatMult                   0      0.00%     84.27% # attempts to use FU when none available
system.cpu0.iq.fu_full::FloatMultAcc                0      0.00%     84.27% # attempts to use FU when none available
system.cpu0.iq.fu_full::FloatDiv                    0      0.00%     84.27% # attempts to use FU when none available
system.cpu0.iq.fu_full::FloatMisc                   0      0.00%     84.27% # attempts to use FU when none available
system.cpu0.iq.fu_full::FloatSqrt                   0      0.00%     84.27% # attempts to use FU when none available
system.cpu0.iq.fu_full::SimdAdd                     0      0.00%     84.27% # attempts to use FU when none available
system.cpu0.iq.fu_full::SimdAddAcc                  0      0.00%     84.27% # attempts to use FU when none available
system.cpu0.iq.fu_full::SimdAlu                     0      0.00%     84.27% # attempts to use FU when none available
system.cpu0.iq.fu_full::SimdCmp                     0      0.00%     84.27% # attempts to use FU when none available
system.cpu0.iq.fu_full::SimdCvt                     0      0.00%     84.27% # attempts to use FU when none available
system.cpu0.iq.fu_full::SimdMisc                    0      0.00%     84.27% # attempts to use FU when none available
system.cpu0.iq.fu_full::SimdMult                    0      0.00%     84.27% # attempts to use FU when none available
system.cpu0.iq.fu_full::SimdMultAcc                 0      0.00%     84.27% # attempts to use FU when none available
system.cpu0.iq.fu_full::SimdShift                   0      0.00%     84.27% # attempts to use FU when none available
system.cpu0.iq.fu_full::SimdShiftAcc                0      0.00%     84.27% # attempts to use FU when none available
system.cpu0.iq.fu_full::SimdSqrt                    0      0.00%     84.27% # attempts to use FU when none available
system.cpu0.iq.fu_full::SimdFloatAdd                0      0.00%     84.27% # attempts to use FU when none available
system.cpu0.iq.fu_full::SimdFloatAlu                0      0.00%     84.27% # attempts to use FU when none available
system.cpu0.iq.fu_full::SimdFloatCmp                0      0.00%     84.27% # attempts to use FU when none available
system.cpu0.iq.fu_full::SimdFloatCvt                0      0.00%     84.27% # attempts to use FU when none available
system.cpu0.iq.fu_full::SimdFloatDiv                0      0.00%     84.27% # attempts to use FU when none available
system.cpu0.iq.fu_full::SimdFloatMisc               0      0.00%     84.27% # attempts to use FU when none available
system.cpu0.iq.fu_full::SimdFloatMult               0      0.00%     84.27% # attempts to use FU when none available
system.cpu0.iq.fu_full::SimdFloatMultAcc            0      0.00%     84.27% # attempts to use FU when none available
system.cpu0.iq.fu_full::SimdFloatSqrt               0      0.00%     84.27% # attempts to use FU when none available
system.cpu0.iq.fu_full::MemRead                    65      4.21%     88.48% # attempts to use FU when none available
system.cpu0.iq.fu_full::MemWrite                   75      4.85%     93.33% # attempts to use FU when none available
system.cpu0.iq.fu_full::FloatMemRead                6      0.39%     93.72% # attempts to use FU when none available
system.cpu0.iq.fu_full::FloatMemWrite              97      6.28%    100.00% # attempts to use FU when none available
system.cpu0.iq.fu_full::IprAccess                   0      0.00%    100.00% # attempts to use FU when none available
system.cpu0.iq.fu_full::InstPrefetch                0      0.00%    100.00% # attempts to use FU when none available
system.cpu0.iq.FU_type_0::No_OpClass              996      1.04%      1.04% # Type of FU issued
system.cpu0.iq.FU_type_0::IntAlu                72043     75.05%     76.09% # Type of FU issued
system.cpu0.iq.FU_type_0::IntMult                  58      0.06%     76.15% # Type of FU issued
system.cpu0.iq.FU_type_0::IntDiv                   96      0.10%     76.25% # Type of FU issued
system.cpu0.iq.FU_type_0::FloatAdd                941      0.98%     77.23% # Type of FU issued
system.cpu0.iq.FU_type_0::FloatCmp                  0      0.00%     77.23% # Type of FU issued
system.cpu0.iq.FU_type_0::FloatCvt                  0      0.00%     77.23% # Type of FU issued
system.cpu0.iq.FU_type_0::FloatMult                 0      0.00%     77.23% # Type of FU issued
system.cpu0.iq.FU_type_0::FloatMultAcc              0      0.00%     77.23% # Type of FU issued
system.cpu0.iq.FU_type_0::FloatDiv                  0      0.00%     77.23% # Type of FU issued
system.cpu0.iq.FU_type_0::FloatMisc                 0      0.00%     77.23% # Type of FU issued
system.cpu0.iq.FU_type_0::FloatSqrt                 0      0.00%     77.23% # Type of FU issued
system.cpu0.iq.FU_type_0::SimdAdd                   0      0.00%     77.23% # Type of FU issued
system.cpu0.iq.FU_type_0::SimdAddAcc                0      0.00%     77.23% # Type of FU issued
system.cpu0.iq.FU_type_0::SimdAlu                   0      0.00%     77.23% # Type of FU issued
system.cpu0.iq.FU_type_0::SimdCmp                   0      0.00%     77.23% # Type of FU issued
system.cpu0.iq.FU_type_0::SimdCvt                   0      0.00%     77.23% # Type of FU issued
system.cpu0.iq.FU_type_0::SimdMisc                  0      0.00%     77.23% # Type of FU issued
system.cpu0.iq.FU_type_0::SimdMult                  0      0.00%     77.23% # Type of FU issued
system.cpu0.iq.FU_type_0::SimdMultAcc               0      0.00%     77.23% # Type of FU issued
system.cpu0.iq.FU_type_0::SimdShift                 0      0.00%     77.23% # Type of FU issued
system.cpu0.iq.FU_type_0::SimdShiftAcc              0      0.00%     77.23% # Type of FU issued
system.cpu0.iq.FU_type_0::SimdSqrt                  0      0.00%     77.23% # Type of FU issued
system.cpu0.iq.FU_type_0::SimdFloatAdd              0      0.00%     77.23% # Type of FU issued
system.cpu0.iq.FU_type_0::SimdFloatAlu              0      0.00%     77.23% # Type of FU issued
system.cpu0.iq.FU_type_0::SimdFloatCmp              0      0.00%     77.23% # Type of FU issued
system.cpu0.iq.FU_type_0::SimdFloatCvt              0      0.00%     77.23% # Type of FU issued
system.cpu0.iq.FU_type_0::SimdFloatDiv              0      0.00%     77.23% # Type of FU issued
system.cpu0.iq.FU_type_0::SimdFloatMisc             0      0.00%     77.23% # Type of FU issued
system.cpu0.iq.FU_type_0::SimdFloatMult             0      0.00%     77.23% # Type of FU issued
system.cpu0.iq.FU_type_0::SimdFloatMultAcc            0      0.00%     77.23% # Type of FU issued
system.cpu0.iq.FU_type_0::SimdFloatSqrt             0      0.00%     77.23% # Type of FU issued
system.cpu0.iq.FU_type_0::MemRead               11134     11.60%     88.83% # Type of FU issued
system.cpu0.iq.FU_type_0::MemWrite               7259      7.56%     96.39% # Type of FU issued
system.cpu0.iq.FU_type_0::FloatMemRead            172      0.18%     96.57% # Type of FU issued
system.cpu0.iq.FU_type_0::FloatMemWrite          3291      3.43%    100.00% # Type of FU issued
system.cpu0.iq.FU_type_0::IprAccess                 0      0.00%    100.00% # Type of FU issued
system.cpu0.iq.FU_type_0::InstPrefetch              0      0.00%    100.00% # Type of FU issued
system.cpu0.iq.FU_type_0::total                 95990                       # Type of FU issued
system.cpu0.iq.rate                          0.471475                       # Inst issue rate
system.cpu0.iq.fu_busy_cnt                       1545                       # FU busy when requested
system.cpu0.iq.fu_busy_rate                  0.016095                       # FU busy rate (busy events/executed inst)
system.cpu0.iq.int_inst_queue_reads            323466                       # Number of integer instruction queue reads
system.cpu0.iq.int_inst_queue_writes           159187                       # Number of integer instruction queue writes
system.cpu0.iq.int_inst_queue_wakeup_accesses        84644                       # Number of integer instruction queue wakeup accesses
system.cpu0.iq.fp_inst_queue_reads               9213                       # Number of floating instruction queue reads
system.cpu0.iq.fp_inst_queue_writes              5037                       # Number of floating instruction queue writes
system.cpu0.iq.fp_inst_queue_wakeup_accesses         4421                       # Number of floating instruction queue wakeup accesses
system.cpu0.iq.vec_inst_queue_reads                 0                       # Number of vector instruction queue reads
system.cpu0.iq.vec_inst_queue_writes                0                       # Number of vector instruction queue writes
system.cpu0.iq.vec_inst_queue_wakeup_accesses            0                       # Number of vector instruction queue wakeup accesses
system.cpu0.iq.int_alu_accesses                 91910                       # Number of integer alu accesses
system.cpu0.iq.fp_alu_accesses                   4629                       # Number of floating point alu accesses
system.cpu0.iq.vec_alu_accesses                     0                       # Number of vector alu accesses
system.cpu0.iew.lsq.thread0.forwLoads             783                       # Number of loads that had data forwarded from stores
system.cpu0.iew.lsq.thread0.invAddrLoads            0                       # Number of loads ignored due to an invalid address
system.cpu0.iew.lsq.thread0.squashedLoads         6614                       # Number of loads squashed
system.cpu0.iew.lsq.thread0.ignoredResponses           19                       # Number of memory responses ignored because the instruction is squashed
system.cpu0.iew.lsq.thread0.memOrderViolation           46                       # Number of memory ordering violations
system.cpu0.iew.lsq.thread0.squashedStores         4651                       # Number of stores squashed
system.cpu0.iew.lsq.thread0.invAddrSwpfs            0                       # Number of software prefetches ignored due to an invalid address
system.cpu0.iew.lsq.thread0.blockedLoads            0                       # Number of blocked loads due to partial load-store forwarding
system.cpu0.iew.lsq.thread0.rescheduledLoads           28                       # Number of loads that were rescheduled
system.cpu0.iew.lsq.thread0.cacheBlocked           15                       # Number of times an access to memory failed due to the cache being blocked
system.cpu0.iew.iewIdleCycles                       0                       # Number of cycles IEW is idle
system.cpu0.iew.iewSquashCycles                  2249                       # Number of cycles IEW is squashing
system.cpu0.iew.iewBlockCycles                   7700                       # Number of cycles IEW is blocking
system.cpu0.iew.iewUnblockCycles                30759                       # Number of cycles IEW is unblocking
system.cpu0.iew.iewDispatchedInsts             112272                       # Number of instructions dispatched to IQ
system.cpu0.iew.iewDispSquashedInsts               86                       # Number of squashed instructions skipped by dispatch
system.cpu0.iew.iewDispLoadInsts                13310                       # Number of dispatched load instructions
system.cpu0.iew.iewDispStoreInsts               12471                       # Number of dispatched store instructions
system.cpu0.iew.iewDispNonSpecInsts               171                       # Number of dispatched non-speculative instructions
system.cpu0.iew.iewIQFullEvents                    19                       # Number of times the IQ has become full, causing a stall
system.cpu0.iew.iewLSQFullEvents                30727                       # Number of times the LSQ has become full, causing a stall
system.cpu0.iew.memOrderViolationEvents            46                       # Number of memory order violations
system.cpu0.iew.predictedTakenIncorrect           446                       # Number of branches that were predicted taken incorrectly
system.cpu0.iew.predictedNotTakenIncorrect         2460                       # Number of branches that were predicted not taken incorrectly
system.cpu0.iew.branchMispredicts                2906                       # Number of branch mispredicts detected at execute
system.cpu0.iew.iewExecutedInsts                91039                       # Number of executed instructions
system.cpu0.iew.iewExecLoadInsts                10398                       # Number of load instructions executed
system.cpu0.iew.iewExecSquashedInsts             4951                       # Number of squashed instructions skipped in execute
system.cpu0.iew.exec_swp                            0                       # number of swp insts executed
system.cpu0.iew.exec_nop                            0                       # number of nop insts executed
system.cpu0.iew.exec_refs                       20339                       # number of memory reference insts executed
system.cpu0.iew.exec_branches                    9074                       # Number of branches executed
system.cpu0.iew.exec_stores                      9941                       # Number of stores executed
system.cpu0.iew.exec_rate                    0.447157                       # Inst execution rate
system.cpu0.iew.wb_sent                         89963                       # cumulative count of insts sent to commit
system.cpu0.iew.wb_count                        89065                       # cumulative count of insts written-back
system.cpu0.iew.wb_producers                    59734                       # num instructions producing a value
system.cpu0.iew.wb_consumers                    92296                       # num instructions consuming a value
system.cpu0.iew.wb_rate                      0.437462                       # insts written-back per cycle
system.cpu0.iew.wb_fanout                    0.647200                       # average fanout of values written-back
system.cpu0.commit.commitSquashedInsts          51910                       # The number of squashed insts skipped by commit
system.cpu0.commit.commitNonSpecStalls             37                       # The number of times commit has been forced to stall to communicate backwards
system.cpu0.commit.branchMispredicts             2218                       # The number of times a branch was mispredicted
system.cpu0.commit.committed_per_cycle::samples       130120                       # Number of insts commited each cycle
system.cpu0.commit.committed_per_cycle::mean     0.463903                       # Number of insts commited each cycle
system.cpu0.commit.committed_per_cycle::stdev     1.465146                       # Number of insts commited each cycle
system.cpu0.commit.committed_per_cycle::underflows            0      0.00%      0.00% # Number of insts commited each cycle
system.cpu0.commit.committed_per_cycle::0       110939     85.26%     85.26% # Number of insts commited each cycle
system.cpu0.commit.committed_per_cycle::1         7345      5.64%     90.90% # Number of insts commited each cycle
system.cpu0.commit.committed_per_cycle::2         2637      2.03%     92.93% # Number of insts commited each cycle
system.cpu0.commit.committed_per_cycle::3         3279      2.52%     95.45% # Number of insts commited each cycle
system.cpu0.commit.committed_per_cycle::4         1453      1.12%     96.57% # Number of insts commited each cycle
system.cpu0.commit.committed_per_cycle::5          716      0.55%     97.12% # Number of insts commited each cycle
system.cpu0.commit.committed_per_cycle::6          551      0.42%     97.54% # Number of insts commited each cycle
system.cpu0.commit.committed_per_cycle::7          391      0.30%     97.84% # Number of insts commited each cycle
system.cpu0.commit.committed_per_cycle::8         2809      2.16%    100.00% # Number of insts commited each cycle
system.cpu0.commit.committed_per_cycle::overflows            0      0.00%    100.00% # Number of insts commited each cycle
system.cpu0.commit.committed_per_cycle::min_value            0                       # Number of insts commited each cycle
system.cpu0.commit.committed_per_cycle::max_value            8                       # Number of insts commited each cycle
system.cpu0.commit.committed_per_cycle::total       130120                       # Number of insts commited each cycle
system.cpu0.commit.committedInsts               30275                       # Number of instructions committed
system.cpu0.commit.committedOps                 60363                       # Number of ops (including micro ops) committed
system.cpu0.commit.swp_count                        0                       # Number of s/w prefetches committed
system.cpu0.commit.refs                         14516                       # Number of memory references committed
system.cpu0.commit.loads                         6696                       # Number of loads committed
system.cpu0.commit.membars                          8                       # Number of memory barriers committed
system.cpu0.commit.branches                      6789                       # Number of branches committed
system.cpu0.commit.vec_insts                        0                       # Number of committed Vector instructions.
system.cpu0.commit.fp_insts                      4223                       # Number of committed floating point instructions.
system.cpu0.commit.int_insts                    59270                       # Number of committed integer instructions.
system.cpu0.commit.function_calls                 437                       # Number of function calls committed.
system.cpu0.commit.op_class_0::No_OpClass          240      0.40%      0.40% # Class of committed instruction
system.cpu0.commit.op_class_0::IntAlu           44558     73.82%     74.21% # Class of committed instruction
system.cpu0.commit.op_class_0::IntMult             48      0.08%     74.29% # Class of committed instruction
system.cpu0.commit.op_class_0::IntDiv              77      0.13%     74.42% # Class of committed instruction
system.cpu0.commit.op_class_0::FloatAdd           924      1.53%     75.95% # Class of committed instruction
system.cpu0.commit.op_class_0::FloatCmp             0      0.00%     75.95% # Class of committed instruction
system.cpu0.commit.op_class_0::FloatCvt             0      0.00%     75.95% # Class of committed instruction
system.cpu0.commit.op_class_0::FloatMult            0      0.00%     75.95% # Class of committed instruction
system.cpu0.commit.op_class_0::FloatMultAcc            0      0.00%     75.95% # Class of committed instruction
system.cpu0.commit.op_class_0::FloatDiv             0      0.00%     75.95% # Class of committed instruction
system.cpu0.commit.op_class_0::FloatMisc            0      0.00%     75.95% # Class of committed instruction
system.cpu0.commit.op_class_0::FloatSqrt            0      0.00%     75.95% # Class of committed instruction
system.cpu0.commit.op_class_0::SimdAdd              0      0.00%     75.95% # Class of committed instruction
system.cpu0.commit.op_class_0::SimdAddAcc            0      0.00%     75.95% # Class of committed instruction
system.cpu0.commit.op_class_0::SimdAlu              0      0.00%     75.95% # Class of committed instruction
system.cpu0.commit.op_class_0::SimdCmp              0      0.00%     75.95% # Class of committed instruction
system.cpu0.commit.op_class_0::SimdCvt              0      0.00%     75.95% # Class of committed instruction
system.cpu0.commit.op_class_0::SimdMisc             0      0.00%     75.95% # Class of committed instruction
system.cpu0.commit.op_class_0::SimdMult             0      0.00%     75.95% # Class of committed instruction
system.cpu0.commit.op_class_0::SimdMultAcc            0      0.00%     75.95% # Class of committed instruction
system.cpu0.commit.op_class_0::SimdShift            0      0.00%     75.95% # Class of committed instruction
system.cpu0.commit.op_class_0::SimdShiftAcc            0      0.00%     75.95% # Class of committed instruction
system.cpu0.commit.op_class_0::SimdSqrt             0      0.00%     75.95% # Class of committed instruction
system.cpu0.commit.op_class_0::SimdFloatAdd            0      0.00%     75.95% # Class of committed instruction
system.cpu0.commit.op_class_0::SimdFloatAlu            0      0.00%     75.95% # Class of committed instruction
system.cpu0.commit.op_class_0::SimdFloatCmp            0      0.00%     75.95% # Class of committed instruction
system.cpu0.commit.op_class_0::SimdFloatCvt            0      0.00%     75.95% # Class of committed instruction
system.cpu0.commit.op_class_0::SimdFloatDiv            0      0.00%     75.95% # Class of committed instruction
system.cpu0.commit.op_class_0::SimdFloatMisc            0      0.00%     75.95% # Class of committed instruction
system.cpu0.commit.op_class_0::SimdFloatMult            0      0.00%     75.95% # Class of committed instruction
system.cpu0.commit.op_class_0::SimdFloatMultAcc            0      0.00%     75.95% # Class of committed instruction
system.cpu0.commit.op_class_0::SimdFloatSqrt            0      0.00%     75.95% # Class of committed instruction
system.cpu0.commit.op_class_0::MemRead           6543     10.84%     86.79% # Class of committed instruction
system.cpu0.commit.op_class_0::MemWrite          4779      7.92%     94.71% # Class of committed instruction
system.cpu0.commit.op_class_0::FloatMemRead          153      0.25%     94.96% # Class of committed instruction
system.cpu0.commit.op_class_0::FloatMemWrite         3041      5.04%    100.00% # Class of committed instruction
system.cpu0.commit.op_class_0::IprAccess            0      0.00%    100.00% # Class of committed instruction
system.cpu0.commit.op_class_0::InstPrefetch            0      0.00%    100.00% # Class of committed instruction
system.cpu0.commit.op_class_0::total            60363                       # Class of committed instruction
system.cpu0.commit.bw_lim_events                 2809                       # number cycles where commit BW limit reached
system.cpu0.rob.rob_reads                      239584                       # The number of ROB reads
system.cpu0.rob.rob_writes                     233051                       # The number of ROB writes
system.cpu0.timesIdled                            425                       # Number of times that the entire CPU went into an idle state and unscheduled itself
system.cpu0.idleCycles                          65142                       # Total number of cycles that the CPU has spent unscheduled due to idling
system.cpu0.committedInsts                      30275                       # Number of Instructions Simulated
system.cpu0.committedOps                        60363                       # Number of Ops (including micro ops) Simulated
system.cpu0.cpi                              6.724855                       # CPI: Cycles Per Instruction
system.cpu0.cpi_total                        6.724855                       # CPI: Total CPI of All Threads
system.cpu0.ipc                              0.148702                       # IPC: Instructions Per Cycle
system.cpu0.ipc_total                        0.148702                       # IPC: Total IPC of All Threads
system.cpu0.int_regfile_reads                  125332                       # number of integer regfile reads
system.cpu0.int_regfile_writes                  69063                       # number of integer regfile writes
system.cpu0.fp_regfile_reads                     5287                       # number of floating regfile reads
system.cpu0.fp_regfile_writes                    1053                       # number of floating regfile writes
system.cpu0.cc_regfile_reads                    42475                       # number of cc regfile reads
system.cpu0.cc_regfile_writes                   24365                       # number of cc regfile writes
system.cpu0.misc_regfile_reads                  41240                       # number of misc regfile reads
system.cpu0.dcache.tags.pwrStateResidencyTicks::UNDEFINED     67796802                       # Cumulative time (in ticks) in various power states
system.cpu0.dcache.tags.replacements              128                       # number of replacements
system.cpu0.dcache.tags.tagsinuse          256.270901                       # Cycle average of tags in use
system.cpu0.dcache.tags.total_refs              16425                       # Total number of references to valid blocks.
system.cpu0.dcache.tags.sampled_refs              639                       # Sample count of references to valid blocks.
system.cpu0.dcache.tags.avg_refs            25.704225                       # Average number of references to valid blocks.
system.cpu0.dcache.tags.warmup_cycle           150183                       # Cycle when the warmup percentage was hit.
system.cpu0.dcache.tags.occ_blocks::cpu0.data   256.270901                       # Average occupied blocks per requestor
system.cpu0.dcache.tags.occ_percent::cpu0.data     0.500529                       # Average percentage of cache occupancy
system.cpu0.dcache.tags.occ_percent::total     0.500529                       # Average percentage of cache occupancy
system.cpu0.dcache.tags.occ_task_id_blocks::1024          511                       # Occupied blocks per task id
system.cpu0.dcache.tags.age_task_id_blocks_1024::0          159                       # Occupied blocks per task id
system.cpu0.dcache.tags.age_task_id_blocks_1024::1          352                       # Occupied blocks per task id
system.cpu0.dcache.tags.occ_task_id_percent::1024     0.998047                       # Percentage of cache occupancy per task id
system.cpu0.dcache.tags.tag_accesses           138215                       # Number of tag accesses
system.cpu0.dcache.tags.data_accesses          138215                       # Number of data accesses
system.cpu0.dcache.pwrStateResidencyTicks::UNDEFINED     67796802                       # Cumulative time (in ticks) in various power states
system.cpu0.dcache.ReadReq_hits::cpu0.data         9122                       # number of ReadReq hits
system.cpu0.dcache.ReadReq_hits::total           9122                       # number of ReadReq hits
system.cpu0.dcache.WriteReq_hits::cpu0.data         7303                       # number of WriteReq hits
system.cpu0.dcache.WriteReq_hits::total          7303                       # number of WriteReq hits
system.cpu0.dcache.demand_hits::cpu0.data        16425                       # number of demand (read+write) hits
system.cpu0.dcache.demand_hits::total           16425                       # number of demand (read+write) hits
system.cpu0.dcache.overall_hits::cpu0.data        16425                       # number of overall hits
system.cpu0.dcache.overall_hits::total          16425                       # number of overall hits
system.cpu0.dcache.ReadReq_misses::cpu0.data          286                       # number of ReadReq misses
system.cpu0.dcache.ReadReq_misses::total          286                       # number of ReadReq misses
system.cpu0.dcache.WriteReq_misses::cpu0.data          486                       # number of WriteReq misses
system.cpu0.dcache.WriteReq_misses::total          486                       # number of WriteReq misses
system.cpu0.dcache.demand_misses::cpu0.data          772                       # number of demand (read+write) misses
system.cpu0.dcache.demand_misses::total           772                       # number of demand (read+write) misses
system.cpu0.dcache.overall_misses::cpu0.data          772                       # number of overall misses
system.cpu0.dcache.overall_misses::total          772                       # number of overall misses
system.cpu0.dcache.ReadReq_miss_latency::cpu0.data     21140172                       # number of ReadReq miss cycles
system.cpu0.dcache.ReadReq_miss_latency::total     21140172                       # number of ReadReq miss cycles
system.cpu0.dcache.WriteReq_miss_latency::cpu0.data     28584720                       # number of WriteReq miss cycles
system.cpu0.dcache.WriteReq_miss_latency::total     28584720                       # number of WriteReq miss cycles
system.cpu0.dcache.demand_miss_latency::cpu0.data     49724892                       # number of demand (read+write) miss cycles
system.cpu0.dcache.demand_miss_latency::total     49724892                       # number of demand (read+write) miss cycles
system.cpu0.dcache.overall_miss_latency::cpu0.data     49724892                       # number of overall miss cycles
system.cpu0.dcache.overall_miss_latency::total     49724892                       # number of overall miss cycles
system.cpu0.dcache.ReadReq_accesses::cpu0.data         9408                       # number of ReadReq accesses(hits+misses)
system.cpu0.dcache.ReadReq_accesses::total         9408                       # number of ReadReq accesses(hits+misses)
system.cpu0.dcache.WriteReq_accesses::cpu0.data         7789                       # number of WriteReq accesses(hits+misses)
system.cpu0.dcache.WriteReq_accesses::total         7789                       # number of WriteReq accesses(hits+misses)
system.cpu0.dcache.demand_accesses::cpu0.data        17197                       # number of demand (read+write) accesses
system.cpu0.dcache.demand_accesses::total        17197                       # number of demand (read+write) accesses
system.cpu0.dcache.overall_accesses::cpu0.data        17197                       # number of overall (read+write) accesses
system.cpu0.dcache.overall_accesses::total        17197                       # number of overall (read+write) accesses
system.cpu0.dcache.ReadReq_miss_rate::cpu0.data     0.030400                       # miss rate for ReadReq accesses
system.cpu0.dcache.ReadReq_miss_rate::total     0.030400                       # miss rate for ReadReq accesses
system.cpu0.dcache.WriteReq_miss_rate::cpu0.data     0.062396                       # miss rate for WriteReq accesses
system.cpu0.dcache.WriteReq_miss_rate::total     0.062396                       # miss rate for WriteReq accesses
system.cpu0.dcache.demand_miss_rate::cpu0.data     0.044892                       # miss rate for demand accesses
system.cpu0.dcache.demand_miss_rate::total     0.044892                       # miss rate for demand accesses
system.cpu0.dcache.overall_miss_rate::cpu0.data     0.044892                       # miss rate for overall accesses
system.cpu0.dcache.overall_miss_rate::total     0.044892                       # miss rate for overall accesses
system.cpu0.dcache.ReadReq_avg_miss_latency::cpu0.data 73916.685315                       # average ReadReq miss latency
system.cpu0.dcache.ReadReq_avg_miss_latency::total 73916.685315                       # average ReadReq miss latency
system.cpu0.dcache.WriteReq_avg_miss_latency::cpu0.data 58816.296296                       # average WriteReq miss latency
system.cpu0.dcache.WriteReq_avg_miss_latency::total 58816.296296                       # average WriteReq miss latency
system.cpu0.dcache.demand_avg_miss_latency::cpu0.data 64410.481865                       # average overall miss latency
system.cpu0.dcache.demand_avg_miss_latency::total 64410.481865                       # average overall miss latency
system.cpu0.dcache.overall_avg_miss_latency::cpu0.data 64410.481865                       # average overall miss latency
system.cpu0.dcache.overall_avg_miss_latency::total 64410.481865                       # average overall miss latency
system.cpu0.dcache.blocked_cycles::no_mshrs          519                       # number of cycles access was blocked
system.cpu0.dcache.blocked_cycles::no_targets            0                       # number of cycles access was blocked
system.cpu0.dcache.blocked::no_mshrs                6                       # number of cycles access was blocked
system.cpu0.dcache.blocked::no_targets              0                       # number of cycles access was blocked
system.cpu0.dcache.avg_blocked_cycles::no_mshrs    86.500000                       # average number of cycles each access was blocked
system.cpu0.dcache.avg_blocked_cycles::no_targets          nan                       # average number of cycles each access was blocked
system.cpu0.dcache.writebacks::writebacks           77                       # number of writebacks
system.cpu0.dcache.writebacks::total               77                       # number of writebacks
system.cpu0.dcache.ReadReq_mshr_hits::cpu0.data          131                       # number of ReadReq MSHR hits
system.cpu0.dcache.ReadReq_mshr_hits::total          131                       # number of ReadReq MSHR hits
system.cpu0.dcache.WriteReq_mshr_hits::cpu0.data            1                       # number of WriteReq MSHR hits
system.cpu0.dcache.WriteReq_mshr_hits::total            1                       # number of WriteReq MSHR hits
system.cpu0.dcache.demand_mshr_hits::cpu0.data          132                       # number of demand (read+write) MSHR hits
system.cpu0.dcache.demand_mshr_hits::total          132                       # number of demand (read+write) MSHR hits
system.cpu0.dcache.overall_mshr_hits::cpu0.data          132                       # number of overall MSHR hits
system.cpu0.dcache.overall_mshr_hits::total          132                       # number of overall MSHR hits
system.cpu0.dcache.ReadReq_mshr_misses::cpu0.data          155                       # number of ReadReq MSHR misses
system.cpu0.dcache.ReadReq_mshr_misses::total          155                       # number of ReadReq MSHR misses
system.cpu0.dcache.WriteReq_mshr_misses::cpu0.data          485                       # number of WriteReq MSHR misses
system.cpu0.dcache.WriteReq_mshr_misses::total          485                       # number of WriteReq MSHR misses
system.cpu0.dcache.demand_mshr_misses::cpu0.data          640                       # number of demand (read+write) MSHR misses
system.cpu0.dcache.demand_mshr_misses::total          640                       # number of demand (read+write) MSHR misses
system.cpu0.dcache.overall_mshr_misses::cpu0.data          640                       # number of overall MSHR misses
system.cpu0.dcache.overall_mshr_misses::total          640                       # number of overall MSHR misses
system.cpu0.dcache.ReadReq_mshr_miss_latency::cpu0.data     12469851                       # number of ReadReq MSHR miss cycles
system.cpu0.dcache.ReadReq_mshr_miss_latency::total     12469851                       # number of ReadReq MSHR miss cycles
system.cpu0.dcache.WriteReq_mshr_miss_latency::cpu0.data     28186452                       # number of WriteReq MSHR miss cycles
system.cpu0.dcache.WriteReq_mshr_miss_latency::total     28186452                       # number of WriteReq MSHR miss cycles
system.cpu0.dcache.demand_mshr_miss_latency::cpu0.data     40656303                       # number of demand (read+write) MSHR miss cycles
system.cpu0.dcache.demand_mshr_miss_latency::total     40656303                       # number of demand (read+write) MSHR miss cycles
system.cpu0.dcache.overall_mshr_miss_latency::cpu0.data     40656303                       # number of overall MSHR miss cycles
system.cpu0.dcache.overall_mshr_miss_latency::total     40656303                       # number of overall MSHR miss cycles
system.cpu0.dcache.ReadReq_mshr_miss_rate::cpu0.data     0.016475                       # mshr miss rate for ReadReq accesses
system.cpu0.dcache.ReadReq_mshr_miss_rate::total     0.016475                       # mshr miss rate for ReadReq accesses
system.cpu0.dcache.WriteReq_mshr_miss_rate::cpu0.data     0.062267                       # mshr miss rate for WriteReq accesses
system.cpu0.dcache.WriteReq_mshr_miss_rate::total     0.062267                       # mshr miss rate for WriteReq accesses
system.cpu0.dcache.demand_mshr_miss_rate::cpu0.data     0.037216                       # mshr miss rate for demand accesses
system.cpu0.dcache.demand_mshr_miss_rate::total     0.037216                       # mshr miss rate for demand accesses
system.cpu0.dcache.overall_mshr_miss_rate::cpu0.data     0.037216                       # mshr miss rate for overall accesses
system.cpu0.dcache.overall_mshr_miss_rate::total     0.037216                       # mshr miss rate for overall accesses
system.cpu0.dcache.ReadReq_avg_mshr_miss_latency::cpu0.data 80450.651613                       # average ReadReq mshr miss latency
system.cpu0.dcache.ReadReq_avg_mshr_miss_latency::total 80450.651613                       # average ReadReq mshr miss latency
system.cpu0.dcache.WriteReq_avg_mshr_miss_latency::cpu0.data 58116.395876                       # average WriteReq mshr miss latency
system.cpu0.dcache.WriteReq_avg_mshr_miss_latency::total 58116.395876                       # average WriteReq mshr miss latency
system.cpu0.dcache.demand_avg_mshr_miss_latency::cpu0.data 63525.473437                       # average overall mshr miss latency
system.cpu0.dcache.demand_avg_mshr_miss_latency::total 63525.473437                       # average overall mshr miss latency
system.cpu0.dcache.overall_avg_mshr_miss_latency::cpu0.data 63525.473437                       # average overall mshr miss latency
system.cpu0.dcache.overall_avg_mshr_miss_latency::total 63525.473437                       # average overall mshr miss latency
system.cpu0.dtb_walker_cache.tags.pwrStateResidencyTicks::UNDEFINED     67796802                       # Cumulative time (in ticks) in various power states
system.cpu0.dtb_walker_cache.tags.replacements            0                       # number of replacements
system.cpu0.dtb_walker_cache.tags.tagsinuse            0                       # Cycle average of tags in use
system.cpu0.dtb_walker_cache.tags.total_refs            0                       # Total number of references to valid blocks.
system.cpu0.dtb_walker_cache.tags.sampled_refs            0                       # Sample count of references to valid blocks.
system.cpu0.dtb_walker_cache.tags.avg_refs          nan                       # Average number of references to valid blocks.
system.cpu0.dtb_walker_cache.tags.warmup_cycle            0                       # Cycle when the warmup percentage was hit.
system.cpu0.dtb_walker_cache.tags.tag_accesses            0                       # Number of tag accesses
system.cpu0.dtb_walker_cache.tags.data_accesses            0                       # Number of data accesses
system.cpu0.dtb_walker_cache.pwrStateResidencyTicks::UNDEFINED     67796802                       # Cumulative time (in ticks) in various power states
system.cpu0.dtb_walker_cache.blocked_cycles::no_mshrs            0                       # number of cycles access was blocked
system.cpu0.dtb_walker_cache.blocked_cycles::no_targets            0                       # number of cycles access was blocked
system.cpu0.dtb_walker_cache.blocked::no_mshrs            0                       # number of cycles access was blocked
system.cpu0.dtb_walker_cache.blocked::no_targets            0                       # number of cycles access was blocked
system.cpu0.dtb_walker_cache.avg_blocked_cycles::no_mshrs          nan                       # average number of cycles each access was blocked
system.cpu0.dtb_walker_cache.avg_blocked_cycles::no_targets          nan                       # average number of cycles each access was blocked
system.cpu0.icache.tags.pwrStateResidencyTicks::UNDEFINED     67796802                       # Cumulative time (in ticks) in various power states
system.cpu0.icache.tags.replacements              287                       # number of replacements
system.cpu0.icache.tags.tagsinuse          392.432853                       # Cycle average of tags in use
system.cpu0.icache.tags.total_refs              10082                       # Total number of references to valid blocks.
system.cpu0.icache.tags.sampled_refs              799                       # Sample count of references to valid blocks.
system.cpu0.icache.tags.avg_refs            12.618273                       # Average number of references to valid blocks.
system.cpu0.icache.tags.warmup_cycle            76257                       # Cycle when the warmup percentage was hit.
system.cpu0.icache.tags.occ_blocks::cpu0.inst   392.432853                       # Average occupied blocks per requestor
system.cpu0.icache.tags.occ_percent::cpu0.inst     0.766470                       # Average percentage of cache occupancy
system.cpu0.icache.tags.occ_percent::total     0.766470                       # Average percentage of cache occupancy
system.cpu0.icache.tags.occ_task_id_blocks::1024          512                       # Occupied blocks per task id
system.cpu0.icache.tags.age_task_id_blocks_1024::0            2                       # Occupied blocks per task id
system.cpu0.icache.tags.age_task_id_blocks_1024::1          510                       # Occupied blocks per task id
system.cpu0.icache.tags.occ_task_id_percent::1024            1                       # Percentage of cache occupancy per task id
system.cpu0.icache.tags.tag_accesses            89407                       # Number of tag accesses
system.cpu0.icache.tags.data_accesses           89407                       # Number of data accesses
system.cpu0.icache.pwrStateResidencyTicks::UNDEFINED     67796802                       # Cumulative time (in ticks) in various power states
system.cpu0.icache.ReadReq_hits::cpu0.inst        10082                       # number of ReadReq hits
system.cpu0.icache.ReadReq_hits::total          10082                       # number of ReadReq hits
system.cpu0.icache.demand_hits::cpu0.inst        10082                       # number of demand (read+write) hits
system.cpu0.icache.demand_hits::total           10082                       # number of demand (read+write) hits
system.cpu0.icache.overall_hits::cpu0.inst        10082                       # number of overall hits
system.cpu0.icache.overall_hits::total          10082                       # number of overall hits
system.cpu0.icache.ReadReq_misses::cpu0.inst          994                       # number of ReadReq misses
system.cpu0.icache.ReadReq_misses::total          994                       # number of ReadReq misses
system.cpu0.icache.demand_misses::cpu0.inst          994                       # number of demand (read+write) misses
system.cpu0.icache.demand_misses::total           994                       # number of demand (read+write) misses
system.cpu0.icache.overall_misses::cpu0.inst          994                       # number of overall misses
system.cpu0.icache.overall_misses::total          994                       # number of overall misses
system.cpu0.icache.ReadReq_miss_latency::cpu0.inst     60672597                       # number of ReadReq miss cycles
system.cpu0.icache.ReadReq_miss_latency::total     60672597                       # number of ReadReq miss cycles
system.cpu0.icache.demand_miss_latency::cpu0.inst     60672597                       # number of demand (read+write) miss cycles
system.cpu0.icache.demand_miss_latency::total     60672597                       # number of demand (read+write) miss cycles
system.cpu0.icache.overall_miss_latency::cpu0.inst     60672597                       # number of overall miss cycles
system.cpu0.icache.overall_miss_latency::total     60672597                       # number of overall miss cycles
system.cpu0.icache.ReadReq_accesses::cpu0.inst        11076                       # number of ReadReq accesses(hits+misses)
system.cpu0.icache.ReadReq_accesses::total        11076                       # number of ReadReq accesses(hits+misses)
system.cpu0.icache.demand_accesses::cpu0.inst        11076                       # number of demand (read+write) accesses
system.cpu0.icache.demand_accesses::total        11076                       # number of demand (read+write) accesses
system.cpu0.icache.overall_accesses::cpu0.inst        11076                       # number of overall (read+write) accesses
system.cpu0.icache.overall_accesses::total        11076                       # number of overall (read+write) accesses
system.cpu0.icache.ReadReq_miss_rate::cpu0.inst     0.089744                       # miss rate for ReadReq accesses
system.cpu0.icache.ReadReq_miss_rate::total     0.089744                       # miss rate for ReadReq accesses
system.cpu0.icache.demand_miss_rate::cpu0.inst     0.089744                       # miss rate for demand accesses
system.cpu0.icache.demand_miss_rate::total     0.089744                       # miss rate for demand accesses
system.cpu0.icache.overall_miss_rate::cpu0.inst     0.089744                       # miss rate for overall accesses
system.cpu0.icache.overall_miss_rate::total     0.089744                       # miss rate for overall accesses
system.cpu0.icache.ReadReq_avg_miss_latency::cpu0.inst 61038.829980                       # average ReadReq miss latency
system.cpu0.icache.ReadReq_avg_miss_latency::total 61038.829980                       # average ReadReq miss latency
system.cpu0.icache.demand_avg_miss_latency::cpu0.inst 61038.829980                       # average overall miss latency
system.cpu0.icache.demand_avg_miss_latency::total 61038.829980                       # average overall miss latency
system.cpu0.icache.overall_avg_miss_latency::cpu0.inst 61038.829980                       # average overall miss latency
system.cpu0.icache.overall_avg_miss_latency::total 61038.829980                       # average overall miss latency
system.cpu0.icache.blocked_cycles::no_mshrs         1123                       # number of cycles access was blocked
system.cpu0.icache.blocked_cycles::no_targets            0                       # number of cycles access was blocked
system.cpu0.icache.blocked::no_mshrs               19                       # number of cycles access was blocked
system.cpu0.icache.blocked::no_targets              0                       # number of cycles access was blocked
system.cpu0.icache.avg_blocked_cycles::no_mshrs    59.105263                       # average number of cycles each access was blocked
system.cpu0.icache.avg_blocked_cycles::no_targets          nan                       # average number of cycles each access was blocked
system.cpu0.icache.writebacks::writebacks          287                       # number of writebacks
system.cpu0.icache.writebacks::total              287                       # number of writebacks
system.cpu0.icache.ReadReq_mshr_hits::cpu0.inst          195                       # number of ReadReq MSHR hits
system.cpu0.icache.ReadReq_mshr_hits::total          195                       # number of ReadReq MSHR hits
system.cpu0.icache.demand_mshr_hits::cpu0.inst          195                       # number of demand (read+write) MSHR hits
system.cpu0.icache.demand_mshr_hits::total          195                       # number of demand (read+write) MSHR hits
system.cpu0.icache.overall_mshr_hits::cpu0.inst          195                       # number of overall MSHR hits
system.cpu0.icache.overall_mshr_hits::total          195                       # number of overall MSHR hits
system.cpu0.icache.ReadReq_mshr_misses::cpu0.inst          799                       # number of ReadReq MSHR misses
system.cpu0.icache.ReadReq_mshr_misses::total          799                       # number of ReadReq MSHR misses
system.cpu0.icache.demand_mshr_misses::cpu0.inst          799                       # number of demand (read+write) MSHR misses
system.cpu0.icache.demand_mshr_misses::total          799                       # number of demand (read+write) MSHR misses
system.cpu0.icache.overall_mshr_misses::cpu0.inst          799                       # number of overall MSHR misses
system.cpu0.icache.overall_mshr_misses::total          799                       # number of overall MSHR misses
system.cpu0.icache.ReadReq_mshr_miss_latency::cpu0.inst     49903379                       # number of ReadReq MSHR miss cycles
system.cpu0.icache.ReadReq_mshr_miss_latency::total     49903379                       # number of ReadReq MSHR miss cycles
system.cpu0.icache.demand_mshr_miss_latency::cpu0.inst     49903379                       # number of demand (read+write) MSHR miss cycles
system.cpu0.icache.demand_mshr_miss_latency::total     49903379                       # number of demand (read+write) MSHR miss cycles
system.cpu0.icache.overall_mshr_miss_latency::cpu0.inst     49903379                       # number of overall MSHR miss cycles
system.cpu0.icache.overall_mshr_miss_latency::total     49903379                       # number of overall MSHR miss cycles
system.cpu0.icache.ReadReq_mshr_miss_rate::cpu0.inst     0.072138                       # mshr miss rate for ReadReq accesses
system.cpu0.icache.ReadReq_mshr_miss_rate::total     0.072138                       # mshr miss rate for ReadReq accesses
system.cpu0.icache.demand_mshr_miss_rate::cpu0.inst     0.072138                       # mshr miss rate for demand accesses
system.cpu0.icache.demand_mshr_miss_rate::total     0.072138                       # mshr miss rate for demand accesses
system.cpu0.icache.overall_mshr_miss_rate::cpu0.inst     0.072138                       # mshr miss rate for overall accesses
system.cpu0.icache.overall_mshr_miss_rate::total     0.072138                       # mshr miss rate for overall accesses
system.cpu0.icache.ReadReq_avg_mshr_miss_latency::cpu0.inst 62457.295369                       # average ReadReq mshr miss latency
system.cpu0.icache.ReadReq_avg_mshr_miss_latency::total 62457.295369                       # average ReadReq mshr miss latency
system.cpu0.icache.demand_avg_mshr_miss_latency::cpu0.inst 62457.295369                       # average overall mshr miss latency
system.cpu0.icache.demand_avg_mshr_miss_latency::total 62457.295369                       # average overall mshr miss latency
system.cpu0.icache.overall_avg_mshr_miss_latency::cpu0.inst 62457.295369                       # average overall mshr miss latency
system.cpu0.icache.overall_avg_mshr_miss_latency::total 62457.295369                       # average overall mshr miss latency
system.cpu0.itb_walker_cache.tags.pwrStateResidencyTicks::UNDEFINED     67796802                       # Cumulative time (in ticks) in various power states
system.cpu0.itb_walker_cache.tags.replacements            0                       # number of replacements
system.cpu0.itb_walker_cache.tags.tagsinuse            0                       # Cycle average of tags in use
system.cpu0.itb_walker_cache.tags.total_refs            0                       # Total number of references to valid blocks.
system.cpu0.itb_walker_cache.tags.sampled_refs            0                       # Sample count of references to valid blocks.
system.cpu0.itb_walker_cache.tags.avg_refs          nan                       # Average number of references to valid blocks.
system.cpu0.itb_walker_cache.tags.warmup_cycle            0                       # Cycle when the warmup percentage was hit.
system.cpu0.itb_walker_cache.tags.tag_accesses            0                       # Number of tag accesses
system.cpu0.itb_walker_cache.tags.data_accesses            0                       # Number of data accesses
system.cpu0.itb_walker_cache.pwrStateResidencyTicks::UNDEFINED     67796802                       # Cumulative time (in ticks) in various power states
system.cpu0.itb_walker_cache.blocked_cycles::no_mshrs            0                       # number of cycles access was blocked
system.cpu0.itb_walker_cache.blocked_cycles::no_targets            0                       # number of cycles access was blocked
system.cpu0.itb_walker_cache.blocked::no_mshrs            0                       # number of cycles access was blocked
system.cpu0.itb_walker_cache.blocked::no_targets            0                       # number of cycles access was blocked
system.cpu0.itb_walker_cache.avg_blocked_cycles::no_mshrs          nan                       # average number of cycles each access was blocked
system.cpu0.itb_walker_cache.avg_blocked_cycles::no_targets          nan                       # average number of cycles each access was blocked
system.cpu0.l2cache.tags.pwrStateResidencyTicks::UNDEFINED     67796802                       # Cumulative time (in ticks) in various power states
system.cpu0.l2cache.tags.replacements               0                       # number of replacements
system.cpu0.l2cache.tags.tagsinuse         775.296009                       # Cycle average of tags in use
system.cpu0.l2cache.tags.total_refs               462                       # Total number of references to valid blocks.
system.cpu0.l2cache.tags.sampled_refs            1387                       # Sample count of references to valid blocks.
system.cpu0.l2cache.tags.avg_refs            0.333093                       # Average number of references to valid blocks.
system.cpu0.l2cache.tags.warmup_cycle           73000                       # Cycle when the warmup percentage was hit.
system.cpu0.l2cache.tags.occ_blocks::cpu0.inst   509.528395                       # Average occupied blocks per requestor
system.cpu0.l2cache.tags.occ_blocks::cpu0.data   265.767613                       # Average occupied blocks per requestor
system.cpu0.l2cache.tags.occ_percent::cpu0.inst     0.124397                       # Average percentage of cache occupancy
system.cpu0.l2cache.tags.occ_percent::cpu0.data     0.064885                       # Average percentage of cache occupancy
system.cpu0.l2cache.tags.occ_percent::total     0.189281                       # Average percentage of cache occupancy
system.cpu0.l2cache.tags.occ_task_id_blocks::1024         1387                       # Occupied blocks per task id
system.cpu0.l2cache.tags.age_task_id_blocks_1024::0          160                       # Occupied blocks per task id
system.cpu0.l2cache.tags.age_task_id_blocks_1024::1         1227                       # Occupied blocks per task id
system.cpu0.l2cache.tags.occ_task_id_percent::1024     0.338623                       # Percentage of cache occupancy per task id
system.cpu0.l2cache.tags.tag_accesses            8787                       # Number of tag accesses
system.cpu0.l2cache.tags.data_accesses           8787                       # Number of data accesses
system.cpu0.l2cache.pwrStateResidencyTicks::UNDEFINED     67796802                       # Cumulative time (in ticks) in various power states
system.cpu0.l2cache.WritebackDirty_hits::writebacks           77                       # number of WritebackDirty hits
system.cpu0.l2cache.WritebackDirty_hits::total           77                       # number of WritebackDirty hits
system.cpu0.l2cache.WritebackClean_hits::writebacks          284                       # number of WritebackClean hits
system.cpu0.l2cache.WritebackClean_hits::total          284                       # number of WritebackClean hits
system.cpu0.l2cache.ReadCleanReq_hits::cpu0.inst           49                       # number of ReadCleanReq hits
system.cpu0.l2cache.ReadCleanReq_hits::total           49                       # number of ReadCleanReq hits
system.cpu0.l2cache.ReadSharedReq_hits::cpu0.data            2                       # number of ReadSharedReq hits
system.cpu0.l2cache.ReadSharedReq_hits::total            2                       # number of ReadSharedReq hits
system.cpu0.l2cache.demand_hits::cpu0.inst           49                       # number of demand (read+write) hits
system.cpu0.l2cache.demand_hits::cpu0.data            2                       # number of demand (read+write) hits
system.cpu0.l2cache.demand_hits::total             51                       # number of demand (read+write) hits
system.cpu0.l2cache.overall_hits::cpu0.inst           49                       # number of overall hits
system.cpu0.l2cache.overall_hits::cpu0.data            2                       # number of overall hits
system.cpu0.l2cache.overall_hits::total            51                       # number of overall hits
system.cpu0.l2cache.ReadExReq_misses::cpu0.data          485                       # number of ReadExReq misses
system.cpu0.l2cache.ReadExReq_misses::total          485                       # number of ReadExReq misses
system.cpu0.l2cache.ReadCleanReq_misses::cpu0.inst          750                       # number of ReadCleanReq misses
system.cpu0.l2cache.ReadCleanReq_misses::total          750                       # number of ReadCleanReq misses
system.cpu0.l2cache.ReadSharedReq_misses::cpu0.data          153                       # number of ReadSharedReq misses
system.cpu0.l2cache.ReadSharedReq_misses::total          153                       # number of ReadSharedReq misses
system.cpu0.l2cache.demand_misses::cpu0.inst          750                       # number of demand (read+write) misses
system.cpu0.l2cache.demand_misses::cpu0.data          638                       # number of demand (read+write) misses
system.cpu0.l2cache.demand_misses::total         1388                       # number of demand (read+write) misses
system.cpu0.l2cache.overall_misses::cpu0.inst          750                       # number of overall misses
system.cpu0.l2cache.overall_misses::cpu0.data          638                       # number of overall misses
system.cpu0.l2cache.overall_misses::total         1388                       # number of overall misses
system.cpu0.l2cache.ReadExReq_miss_latency::cpu0.data     27702603                       # number of ReadExReq miss cycles
[...]
system.l3.demand_mshr_miss_latency::cpu0.inst     38491671                       # number of demand (read+write) MSHR miss cycles
system.l3.demand_mshr_miss_latency::cpu0.data     31130576                       # number of demand (read+write) MSHR miss cycles
system.l3.demand_mshr_miss_latency::cpu1.inst     38052106                       # number of demand (read+write) MSHR miss cycles
system.l3.demand_mshr_miss_latency::cpu1.data     31446002                       # number of demand (read+write) MSHR miss cycles
system.l3.demand_mshr_miss_latency::cpu2.inst     38175655                       # number of demand (read+write) MSHR miss cycles
system.l3.demand_mshr_miss_latency::cpu2.data     31228640                       # number of demand (read+write) MSHR miss cycles
system.l3.demand_mshr_miss_latency::cpu3.inst     39471927                       # number of demand (read+write) MSHR miss cycles
system.l3.demand_mshr_miss_latency::cpu3.data     30248243                       # number of demand (read+write) MSHR miss cycles
system.l3.demand_mshr_miss_latency::total    278244820                       # number of demand (read+write) MSHR miss cycles
system.l3.overall_mshr_miss_latency::cpu0.inst     38491671                       # number of overall MSHR miss cycles
system.l3.overall_mshr_miss_latency::cpu0.data     31130576                       # number of overall MSHR miss cycles
system.l3.overall_mshr_miss_latency::cpu1.inst     38052106                       # number of overall MSHR miss cycles
system.l3.overall_mshr_miss_latency::cpu1.data     31446002                       # number of overall MSHR miss cycles
system.l3.overall_mshr_miss_latency::cpu2.inst     38175655                       # number of overall MSHR miss cycles
system.l3.overall_mshr_miss_latency::cpu2.data     31228640                       # number of overall MSHR miss cycles
system.l3.overall_mshr_miss_latency::cpu3.inst     39471927                       # number of overall MSHR miss cycles
system.l3.overall_mshr_miss_latency::cpu3.data     30248243                       # number of overall MSHR miss cycles
system.l3.overall_mshr_miss_latency::total    278244820                       # number of overall MSHR miss cycles
system.l3.ReadExReq_mshr_miss_rate::cpu0.data            1                       # mshr miss rate for ReadExReq accesses
system.l3.ReadExReq_mshr_miss_rate::cpu1.data            1                       # mshr miss rate for ReadExReq accesses
system.l3.ReadExReq_mshr_miss_rate::cpu2.data            1                       # mshr miss rate for ReadExReq accesses
system.l3.ReadExReq_mshr_miss_rate::cpu3.data            1                       # mshr miss rate for ReadExReq accesses
system.l3.ReadExReq_mshr_miss_rate::total            1                       # mshr miss rate for ReadExReq accesses
system.l3.ReadSharedReq_mshr_miss_rate::cpu0.inst            1                       # mshr miss rate for ReadSharedReq accesses
system.l3.ReadSharedReq_mshr_miss_rate::cpu0.data            1                       # mshr miss rate for ReadSharedReq accesses
system.l3.ReadSharedReq_mshr_miss_rate::cpu1.inst            1                       # mshr miss rate for ReadSharedReq accesses
system.l3.ReadSharedReq_mshr_miss_rate::cpu1.data            1                       # mshr miss rate for ReadSharedReq accesses
system.l3.ReadSharedReq_mshr_miss_rate::cpu2.inst            1                       # mshr miss rate for ReadSharedReq accesses
system.l3.ReadSharedReq_mshr_miss_rate::cpu2.data            1                       # mshr miss rate for ReadSharedReq accesses
system.l3.ReadSharedReq_mshr_miss_rate::cpu3.inst            1                       # mshr miss rate for ReadSharedReq accesses
system.l3.ReadSharedReq_mshr_miss_rate::cpu3.data            1                       # mshr miss rate for ReadSharedReq accesses
system.l3.ReadSharedReq_mshr_miss_rate::total            1                       # mshr miss rate for ReadSharedReq accesses
system.l3.demand_mshr_miss_rate::cpu0.inst            1                       # mshr miss rate for demand accesses
system.l3.demand_mshr_miss_rate::cpu0.data            1                       # mshr miss rate for demand accesses
system.l3.demand_mshr_miss_rate::cpu1.inst            1                       # mshr miss rate for demand accesses
system.l3.demand_mshr_miss_rate::cpu1.data            1                       # mshr miss rate for demand accesses
system.l3.demand_mshr_miss_rate::cpu2.inst            1                       # mshr miss rate for demand accesses
system.l3.demand_mshr_miss_rate::cpu2.data            1                       # mshr miss rate for demand accesses
system.l3.demand_mshr_miss_rate::cpu3.inst            1                       # mshr miss rate for demand accesses
system.l3.demand_mshr_miss_rate::cpu3.data            1                       # mshr miss rate for demand accesses
system.l3.demand_mshr_miss_rate::total              1                       # mshr miss rate for demand accesses
system.l3.overall_mshr_miss_rate::cpu0.inst            1                       # mshr miss rate for overall accesses
system.l3.overall_mshr_miss_rate::cpu0.data            1                       # mshr miss rate for overall accesses
system.l3.overall_mshr_miss_rate::cpu1.inst            1                       # mshr miss rate for overall accesses
system.l3.overall_mshr_miss_rate::cpu1.data            1                       # mshr miss rate for overall accesses
system.l3.overall_mshr_miss_rate::cpu2.inst            1                       # mshr miss rate for overall accesses
system.l3.overall_mshr_miss_rate::cpu2.data            1                       # mshr miss rate for overall accesses
system.l3.overall_mshr_miss_rate::cpu3.inst            1                       # mshr miss rate for overall accesses
system.l3.overall_mshr_miss_rate::cpu3.data            1                       # mshr miss rate for overall accesses
system.l3.overall_mshr_miss_rate::total             1                       # mshr miss rate for overall accesses
system.l3.ReadExReq_avg_mshr_miss_latency::cpu0.data 43289.841237                       # average ReadExReq mshr miss latency
system.l3.ReadExReq_avg_mshr_miss_latency::cpu1.data 43778.800000                       # average ReadExReq mshr miss latency
system.l3.ReadExReq_avg_mshr_miss_latency::cpu2.data 45913.824034                       # average ReadExReq mshr miss latency
system.l3.ReadExReq_avg_mshr_miss_latency::cpu3.data 45246.481153                       # average ReadExReq mshr miss latency
system.l3.ReadExReq_avg_mshr_miss_latency::total 44535.166755                       # average ReadExReq mshr miss latency
system.l3.ReadSharedReq_avg_mshr_miss_latency::cpu0.inst 51322.228000                       # average ReadSharedReq mshr miss latency
system.l3.ReadSharedReq_avg_mshr_miss_latency::cpu0.data 66241.849673                       # average ReadSharedReq mshr miss latency
system.l3.ReadSharedReq_avg_mshr_miss_latency::cpu1.inst 50668.583222                       # average ReadSharedReq mshr miss latency
system.l3.ReadSharedReq_avg_mshr_miss_latency::cpu1.data 61924.837209                       # average ReadSharedReq mshr miss latency
system.l3.ReadSharedReq_avg_mshr_miss_latency::cpu2.inst 50698.081009                       # average ReadSharedReq mshr miss latency
system.l3.ReadSharedReq_avg_mshr_miss_latency::cpu2.data 63437.406452                       # average ReadSharedReq mshr miss latency
system.l3.ReadSharedReq_avg_mshr_miss_latency::cpu3.inst 52911.430295                       # average ReadSharedReq mshr miss latency
system.l3.ReadSharedReq_avg_mshr_miss_latency::cpu3.data 61130.931677                       # average ReadSharedReq mshr miss latency
system.l3.ReadSharedReq_avg_mshr_miss_latency::total 53461.222741                       # average ReadSharedReq mshr miss latency
system.l3.demand_avg_mshr_miss_latency::cpu0.inst 51322.228000                       # average overall mshr miss latency
system.l3.demand_avg_mshr_miss_latency::cpu0.data 48794.006270                       # average overall mshr miss latency
system.l3.demand_avg_mshr_miss_latency::cpu1.inst 50668.583222                       # average overall mshr miss latency
system.l3.demand_avg_mshr_miss_latency::cpu1.data 48602.785162                       # average overall mshr miss latency
system.l3.demand_avg_mshr_miss_latency::cpu2.inst 50698.081009                       # average overall mshr miss latency
system.l3.demand_avg_mshr_miss_latency::cpu2.data 50287.665056                       # average overall mshr miss latency
system.l3.demand_avg_mshr_miss_latency::cpu3.inst 52911.430295                       # average overall mshr miss latency
system.l3.demand_avg_mshr_miss_latency::cpu3.data 49425.233660                       # average overall mshr miss latency
system.l3.demand_avg_mshr_miss_latency::total 50424.940196                       # average overall mshr miss latency
system.l3.overall_avg_mshr_miss_latency::cpu0.inst 51322.228000                       # average overall mshr miss latency
system.l3.overall_avg_mshr_miss_latency::cpu0.data 48794.006270                       # average overall mshr miss latency
system.l3.overall_avg_mshr_miss_latency::cpu1.inst 50668.583222                       # average overall mshr miss latency
system.l3.overall_avg_mshr_miss_latency::cpu1.data 48602.785162                       # average overall mshr miss latency
system.l3.overall_avg_mshr_miss_latency::cpu2.inst 50698.081009                       # average overall mshr miss latency
system.l3.overall_avg_mshr_miss_latency::cpu2.data 50287.665056                       # average overall mshr miss latency
system.l3.overall_avg_mshr_miss_latency::cpu3.inst 52911.430295                       # average overall mshr miss latency
system.l3.overall_avg_mshr_miss_latency::cpu3.data 49425.233660                       # average overall mshr miss latency
system.l3.overall_avg_mshr_miss_latency::total 50424.940196                       # average overall mshr miss latency
system.membus.snoop_filter.tot_requests          5517                       # Total number of requests made to the snoop filter.
system.membus.snoop_filter.hit_single_requests            0                       # Number of requests hitting in the snoop filter with a single holder of the requested data.
system.membus.snoop_filter.hit_multi_requests            0                       # Number of requests hitting in the snoop filter with multiple (>1) holders of the requested data.
system.membus.snoop_filter.tot_snoops               0                       # Total number of snoops made to the snoop filter.
system.membus.snoop_filter.hit_single_snoops            0                       # Number of snoops hitting in the snoop filter with a single holder of the requested data.
system.membus.snoop_filter.hit_multi_snoops            0                       # Number of snoops hitting in the snoop filter with multiple (>1) holders of the requested data.
system.membus.pwrStateResidencyTicks::UNDEFINED     67796802                       # Cumulative time (in ticks) in various power states
system.membus.trans_dist::ReadResp               3641                       # Transaction distribution
system.membus.trans_dist::ReadExReq              1876                       # Transaction distribution
system.membus.trans_dist::ReadExResp             1875                       # Transaction distribution
system.membus.trans_dist::ReadSharedReq          3641                       # Transaction distribution
system.membus.pkt_count_system.l3.mem_side::system.mem_ctrls.port        11033                       # Packet count per connected master and slave (bytes)
system.membus.pkt_count_system.l3.mem_side::total        11033                       # Packet count per connected master and slave (bytes)
system.membus.pkt_count::total                  11033                       # Packet count per connected master and slave (bytes)
system.membus.pkt_size_system.l3.mem_side::system.mem_ctrls.port       353024                       # Cumulative packet size per connected master and slave (bytes)
system.membus.pkt_size_system.l3.mem_side::total       353024                       # Cumulative packet size per connected master and slave (bytes)
system.membus.pkt_size::total                  353024                       # Cumulative packet size per connected master and slave (bytes)
system.membus.snoops                                0                       # Total snoops (count)
system.membus.snoopTraffic                          0                       # Total snoop traffic (bytes)
system.membus.snoop_fanout::samples              5517                       # Request fanout histogram
system.membus.snoop_fanout::mean                    0                       # Request fanout histogram
system.membus.snoop_fanout::stdev                   0                       # Request fanout histogram
system.membus.snoop_fanout::underflows              0      0.00%      0.00% # Request fanout histogram
system.membus.snoop_fanout::0                    5517    100.00%    100.00% # Request fanout histogram
system.membus.snoop_fanout::1                       0      0.00%    100.00% # Request fanout histogram
system.membus.snoop_fanout::overflows               0      0.00%    100.00% # Request fanout histogram
system.membus.snoop_fanout::min_value               0                       # Request fanout histogram
system.membus.snoop_fanout::max_value               0                       # Request fanout histogram
system.membus.snoop_fanout::total                5517                       # Request fanout histogram
system.membus.reqLayer8.occupancy             7160746                       # Layer occupancy (ticks)
system.membus.reqLayer8.utilization              10.6                       # Layer utilization (%)
system.membus.respLayer1.occupancy           28950370                       # Layer occupancy (ticks)
system.membus.respLayer1.utilization             42.7                       # Layer utilization (%)
system.tol3bus.snoop_filter.tot_requests         5519                       # Total number of requests made to the snoop filter.
system.tol3bus.snoop_filter.hit_single_requests            1                       # Number of requests hitting in the snoop filter with a single holder of the requested data.
system.tol3bus.snoop_filter.hit_multi_requests            0                       # Number of requests hitting in the snoop filter with multiple (>1) holders of the requested data.
system.tol3bus.snoop_filter.tot_snoops              0                       # Total number of snoops made to the snoop filter.
system.tol3bus.snoop_filter.hit_single_snoops            0                       # Number of snoops hitting in the snoop filter with a single holder of the requested data.
system.tol3bus.snoop_filter.hit_multi_snoops            0                       # Number of snoops hitting in the snoop filter with multiple (>1) holders of the requested data.
system.tol3bus.pwrStateResidencyTicks::UNDEFINED     67796802                       # Cumulative time (in ticks) in various power states
system.tol3bus.trans_dist::ReadResp              3641                       # Transaction distribution
system.tol3bus.trans_dist::CleanEvict               1                       # Transaction distribution
system.tol3bus.trans_dist::ReadExReq             1877                       # Transaction distribution
system.tol3bus.trans_dist::ReadExResp            1875                       # Transaction distribution
system.tol3bus.trans_dist::ReadSharedReq         3641                       # Transaction distribution
system.tol3bus.pkt_count_system.cpu0.l2cache.mem_side::system.l3.cpu_side         2775                       # Packet count per connected master and slave (bytes)
system.tol3bus.pkt_count_system.cpu1.l2cache.mem_side::system.l3.cpu_side         2795                       # Packet count per connected master and slave (bytes)
system.tol3bus.pkt_count_system.cpu2.l2cache.mem_side::system.l3.cpu_side         2748                       # Packet count per connected master and slave (bytes)
system.tol3bus.pkt_count_system.cpu3.l2cache.mem_side::system.l3.cpu_side         2717                       # Packet count per connected master and slave (bytes)
system.tol3bus.pkt_count::total                 11035                       # Packet count per connected master and slave (bytes)
system.tol3bus.pkt_size_system.cpu0.l2cache.mem_side::system.l3.cpu_side        88768                       # Cumulative packet size per connected master and slave (bytes)
system.tol3bus.pkt_size_system.cpu1.l2cache.mem_side::system.l3.cpu_side        89408                       # Cumulative packet size per connected master and slave (bytes)
system.tol3bus.pkt_size_system.cpu2.l2cache.mem_side::system.l3.cpu_side        87936                       # Cumulative packet size per connected master and slave (bytes)
system.tol3bus.pkt_size_system.cpu3.l2cache.mem_side::system.l3.cpu_side        86912                       # Cumulative packet size per connected master and slave (bytes)
system.tol3bus.pkt_size::total                 353024                       # Cumulative packet size per connected master and slave (bytes)
system.tol3bus.snoops                               0                       # Total snoops (count)
system.tol3bus.snoopTraffic                         0                       # Total snoop traffic (bytes)
system.tol3bus.snoop_fanout::samples             5518                       # Request fanout histogram
system.tol3bus.snoop_fanout::mean                   0                       # Request fanout histogram
system.tol3bus.snoop_fanout::stdev                  0                       # Request fanout histogram
system.tol3bus.snoop_fanout::underflows             0      0.00%      0.00% # Request fanout histogram
system.tol3bus.snoop_fanout::0                   5518    100.00%    100.00% # Request fanout histogram
system.tol3bus.snoop_fanout::1                      0      0.00%    100.00% # Request fanout histogram
system.tol3bus.snoop_fanout::2                      0      0.00%    100.00% # Request fanout histogram
system.tol3bus.snoop_fanout::3                      0      0.00%    100.00% # Request fanout histogram
system.tol3bus.snoop_fanout::4                      0      0.00%    100.00% # Request fanout histogram
system.tol3bus.snoop_fanout::overflows              0      0.00%    100.00% # Request fanout histogram
system.tol3bus.snoop_fanout::min_value              0                       # Request fanout histogram
system.tol3bus.snoop_fanout::max_value              0                       # Request fanout histogram
system.tol3bus.snoop_fanout::total               5518                       # Request fanout histogram
system.tol3bus.reqLayer0.occupancy            8376713                       # Layer occupancy (ticks)
system.tol3bus.reqLayer0.utilization             12.4                       # Layer utilization (%)
system.tol3bus.respLayer0.occupancy           4400460                       # Layer occupancy (ticks)
system.tol3bus.respLayer0.utilization             6.5                       # Layer utilization (%)
system.tol3bus.respLayer1.occupancy           4435038                       # Layer occupancy (ticks)
system.tol3bus.respLayer1.utilization             6.5                       # Layer utilization (%)
system.tol3bus.respLayer2.occupancy           4361002                       # Layer occupancy (ticks)
system.tol3bus.respLayer2.utilization             6.4                       # Layer utilization (%)
system.tol3bus.respLayer3.occupancy           4311714                       # Layer occupancy (ticks)
system.tol3bus.respLayer3.utilization             6.4                       # Layer utilization (%)

---------- End Simulation Statistics   ----------
