
---------- Begin Simulation Statistics ----------
sim_seconds                                  0.004395                       # Number of seconds simulated
sim_ticks                                  4395452481                       # Number of ticks simulated
final_tick                                 4395452481                       # Number of ticks from beginning of simulation (restored from checkpoints and never reset)
sim_freq                                 1000000000000                       # Frequency of simulated ticks
host_inst_rate                                 107479                       # Simulator instruction rate (inst/s)
host_op_rate                                   211353                       # Simulator op (including micro ops) rate (op/s)
host_tick_rate                               11869709                       # Simulator tick rate (ticks/s)
host_mem_usage                               34044948                       # Number of bytes of host memory used
host_seconds                                   370.31                       # Real time elapsed on the host
sim_insts                                    39800305                       # Number of instructions simulated
sim_ops                                      78265904                       # Number of ops (including micro ops) simulated
system.voltage_domain.voltage                       1                       # Voltage in Volts
system.clk_domain.clock                          1000                       # Clock period in ticks
system.mem_ctrls.pwrStateResidencyTicks::UNDEFINED   4395452481                       # Cumulative time (in ticks) in various power states
system.mem_ctrls.bytes_read::cpu0.inst         280384                       # Number of bytes read from this memory
system.mem_ctrls.bytes_read::cpu0.data        1207872                       # Number of bytes read from this memory
system.mem_ctrls.bytes_read::cpu1.inst         280320                       # Number of bytes read from this memory
system.mem_ctrls.bytes_read::cpu1.data        1189440                       # Number of bytes read from this memory
system.mem_ctrls.bytes_read::cpu2.inst         280128                       # Number of bytes read from this memory
system.mem_ctrls.bytes_read::cpu2.data        1201216                       # Number of bytes read from this memory
system.mem_ctrls.bytes_read::cpu3.inst         279552                       # Number of bytes read from this memory
system.mem_ctrls.bytes_read::cpu3.data        1196544                       # Number of bytes read from this memory
system.mem_ctrls.bytes_read::total            5915456                       # Number of bytes read from this memory
system.mem_ctrls.bytes_inst_read::cpu0.inst       280384                       # Number of instructions bytes read from this memory
system.mem_ctrls.bytes_inst_read::cpu1.inst       280320                       # Number of instructions bytes read from this memory
system.mem_ctrls.bytes_inst_read::cpu2.inst       280128                       # Number of instructions bytes read from this memory
system.mem_ctrls.bytes_inst_read::cpu3.inst       279552                       # Number of instructions bytes read from this memory
system.mem_ctrls.bytes_inst_read::total       1120384                       # Number of instructions bytes read from this memory
system.mem_ctrls.bytes_written::writebacks         3712                       # Number of bytes written to this memory
system.mem_ctrls.bytes_written::total            3712                       # Number of bytes written to this memory
system.mem_ctrls.num_reads::cpu0.inst            4381                       # Number of read requests responded to by this memory
system.mem_ctrls.num_reads::cpu0.data           18873                       # Number of read requests responded to by this memory
system.mem_ctrls.num_reads::cpu1.inst            4380                       # Number of read requests responded to by this memory
system.mem_ctrls.num_reads::cpu1.data           18585                       # Number of read requests responded to by this memory
system.mem_ctrls.num_reads::cpu2.inst            4377                       # Number of read requests responded to by this memory
system.mem_ctrls.num_reads::cpu2.data           18769                       # Number of read requests responded to by this memory
system.mem_ctrls.num_reads::cpu3.inst            4368                       # Number of read requests responded to by this memory
system.mem_ctrls.num_reads::cpu3.data           18696                       # Number of read requests responded to by this memory
system.mem_ctrls.num_reads::total               92429                       # Number of read requests responded to by this memory
system.mem_ctrls.num_writes::writebacks            58                       # Number of write requests responded to by this memory
system.mem_ctrls.num_writes::total                 58                       # Number of write requests responded to by this memory
system.mem_ctrls.bw_read::cpu0.inst          63789565                       # Total read bandwidth from this memory (bytes/s)
system.mem_ctrls.bw_read::cpu0.data         274800377                       # Total read bandwidth from this memory (bytes/s)
system.mem_ctrls.bw_read::cpu1.inst          63775004                       # Total read bandwidth from this memory (bytes/s)
system.mem_ctrls.bw_read::cpu1.data         270606952                       # Total read bandwidth from this memory (bytes/s)
system.mem_ctrls.bw_read::cpu2.inst          63731323                       # Total read bandwidth from this memory (bytes/s)
system.mem_ctrls.bw_read::cpu2.data         273286085                       # Total read bandwidth from this memory (bytes/s)
system.mem_ctrls.bw_read::cpu3.inst          63600278                       # Total read bandwidth from this memory (bytes/s)
system.mem_ctrls.bw_read::cpu3.data         272223168                       # Total read bandwidth from this memory (bytes/s)
system.mem_ctrls.bw_read::total            1345812752                       # Total read bandwidth from this memory (bytes/s)
system.mem_ctrls.bw_inst_read::cpu0.inst     63789565                       # Instruction read bandwidth from this memory (bytes/s)
system.mem_ctrls.bw_inst_read::cpu1.inst     63775004                       # Instruction read bandwidth from this memory (bytes/s)
system.mem_ctrls.bw_inst_read::cpu2.inst     63731323                       # Instruction read bandwidth from this memory (bytes/s)
system.mem_ctrls.bw_inst_read::cpu3.inst     63600278                       # Instruction read bandwidth from this memory (bytes/s)
system.mem_ctrls.bw_inst_read::total        254896169                       # Instruction read bandwidth from this memory (bytes/s)
system.mem_ctrls.bw_write::writebacks          844509                       # Write bandwidth from this memory (bytes/s)
system.mem_ctrls.bw_write::total               844509                       # Write bandwidth from this memory (bytes/s)
system.mem_ctrls.bw_total::writebacks          844509                       # Total bandwidth to/from this memory (bytes/s)
system.mem_ctrls.bw_total::cpu0.inst         63789565                       # Total bandwidth to/from this memory (bytes/s)
system.mem_ctrls.bw_total::cpu0.data        274800377                       # Total bandwidth to/from this memory (bytes/s)
system.mem_ctrls.bw_total::cpu1.inst         63775004                       # Total bandwidth to/from this memory (bytes/s)
system.mem_ctrls.bw_total::cpu1.data        270606952                       # Total bandwidth to/from this memory (bytes/s)
system.mem_ctrls.bw_total::cpu2.inst         63731323                       # Total bandwidth to/from this memory (bytes/s)
system.mem_ctrls.bw_total::cpu2.data        273286085                       # Total bandwidth to/from this memory (bytes/s)
system.mem_ctrls.bw_total::cpu3.inst         63600278                       # Total bandwidth to/from this memory (bytes/s)
system.mem_ctrls.bw_total::cpu3.data        272223168                       # Total bandwidth to/from this memory (bytes/s)
system.mem_ctrls.bw_total::total           1346657261                       # Total bandwidth to/from this memory (bytes/s)
system.pwrStateResidencyTicks::UNDEFINED   4395452481                       # Cumulative time (in ticks) in various power states
system.cpu0.branchPred.lookups                5065827                       # Number of BP lookups
system.cpu0.branchPred.condPredicted          5065827                       # Number of conditional branches predicted
system.cpu0.branchPred.condIncorrect           447634                       # Number of conditional branches incorrect
system.cpu0.branchPred.BTBLookups             4125126                       # Number of BTB lookups
system.cpu0.branchPred.BTBHits                      0                       # Number of BTB hits
system.cpu0.branchPred.BTBCorrect                   0                       # Number of correct BTB predictions (this stat may not work properly.
system.cpu0.branchPred.BTBHitPct             0.000000                       # BTB Hit Percentage
system.cpu0.branchPred.usedRAS                 383513                       # Number of times the RAS was used to get a target.
system.cpu0.branchPred.RASInCorrect             82689                       # Number of incorrect RAS predictions.
system.cpu0.branchPred.indirectLookups        4125126                       # Number of indirect predictor lookups.
system.cpu0.branchPred.indirectHits           1226456                       # Number of indirect target hits.
system.cpu0.branchPred.indirectMisses         2898670                       # Number of indirect misses.
system.cpu0.branchPredindirectMispredicted       286108                       # Number of mispredicted indirect branches.
system.cpu_voltage_domain.voltage                   1                       # Voltage in Volts
system.cpu_clk_domain.clock                       333                       # Clock period in ticks
system.cpu0.dtb.walker.pwrStateResidencyTicks::UNDEFINED   4395452481                       # Cumulative time (in ticks) in various power states
system.cpu0.dtb.rdAccesses                    2821816                       # TLB accesses on read requests
system.cpu0.dtb.wrAccesses                    1365911                       # TLB accesses on write requests
system.cpu0.dtb.rdMisses                        40349                       # TLB misses on read requests
system.cpu0.dtb.wrMisses                        18133                       # TLB misses on write requests
system.cpu0.apic_clk_domain.clock                5328                       # Clock period in ticks
system.cpu0.interrupts.pwrStateResidencyTicks::UNDEFINED   4395452481                       # Cumulative time (in ticks) in various power states
system.cpu0.itb.walker.pwrStateResidencyTicks::UNDEFINED   4395452481                       # Cumulative time (in ticks) in various power states
system.cpu0.itb.rdAccesses                          0                       # TLB accesses on read requests
system.cpu0.itb.wrAccesses                    2907389                       # TLB accesses on write requests
system.cpu0.itb.rdMisses                            0                       # TLB misses on read requests
system.cpu0.itb.wrMisses                          985                       # TLB misses on write requests
system.cpu0.workload.numSyscalls                   29                       # Number of system calls
system.cpu0.pwrStateResidencyTicks::ON     4395452481                       # Cumulative time (in ticks) in various power states
system.cpu0.numCycles                        13199558                       # number of cpu cycles simulated
system.cpu0.numWorkItemsStarted                     0                       # number of work items this cpu started
system.cpu0.numWorkItemsCompleted                   0                       # number of work items this cpu completed
system.cpu0.fetch.icacheStallCycles           3496545                       # Number of cycles fetch is stalled on an Icache miss
system.cpu0.fetch.Insts                      20696059                       # Number of instructions fetch has processed
system.cpu0.fetch.Branches                    5065827                       # Number of branches that fetch encountered
system.cpu0.fetch.predictedBranches           1609969                       # Number of branches that fetch has predicted taken
system.cpu0.fetch.Cycles                      8926969                       # Number of cycles fetch has run and was not squashing or blocked
system.cpu0.fetch.SquashCycles                 896508                       # Number of cycles fetch has spent squashing
system.cpu0.fetch.MiscStallCycles                 209                       # Number of cycles fetch has spent waiting on interrupts, or bad addresses, or out of MSHRs
system.cpu0.fetch.PendingTrapStallCycles         1295                       # Number of stall cycles due to pending traps
system.cpu0.fetch.PendingQuiesceStallCycles            6                       # Number of stall cycles due to pending quiesce instructions
system.cpu0.fetch.IcacheWaitRetryStallCycles          280                       # Number of stall cycles due to full MSHR
system.cpu0.fetch.CacheLines                  2907134                       # Number of cache lines fetched
system.cpu0.fetch.IcacheSquashes               124832                       # Number of outstanding Icache misses that were squashed
system.cpu0.fetch.rateDist::samples          12873558                       # Number of instructions fetched each cycle (Total)
system.cpu0.fetch.rateDist::mean             3.117527                       # Number of instructions fetched each cycle (Total)
system.cpu0.fetch.rateDist::stdev            3.611670                       # Number of instructions fetched each cycle (Total)
system.cpu0.fetch.rateDist::underflows              0      0.00%      0.00% # Number of instructions fetched each cycle (Total)
system.cpu0.fetch.rateDist::0                 6770107     52.59%     52.59% # Number of instructions fetched each cycle (Total)
system.cpu0.fetch.rateDist::1                  265563      2.06%     54.65% # Number of instructions fetched each cycle (Total)
system.cpu0.fetch.rateDist::2                  253723      1.97%     56.62% # Number of instructions fetched each cycle (Total)
system.cpu0.fetch.rateDist::3                  355926      2.76%     59.39% # Number of instructions fetched each cycle (Total)
system.cpu0.fetch.rateDist::4                  382683      2.97%     62.36% # Number of instructions fetched each cycle (Total)
system.cpu0.fetch.rateDist::5                  286087      2.22%     64.58% # Number of instructions fetched each cycle (Total)
system.cpu0.fetch.rateDist::6                  319111      2.48%     67.06% # Number of instructions fetched each cycle (Total)
system.cpu0.fetch.rateDist::7                  505819      3.93%     70.99% # Number of instructions fetched each cycle (Total)
system.cpu0.fetch.rateDist::8                 3734539     29.01%    100.00% # Number of instructions fetched each cycle (Total)
system.cpu0.fetch.rateDist::overflows               0      0.00%    100.00% # Number of instructions fetched each cycle (Total)
system.cpu0.fetch.rateDist::min_value               0                       # Number of instructions fetched each cycle (Total)
system.cpu0.fetch.rateDist::max_value               8                       # Number of instructions fetched each cycle (Total)
system.cpu0.fetch.rateDist::total            12873558                       # Number of instructions fetched each cycle (Total)
system.cpu0.fetch.branchRate                 0.383788                       # Number of branch fetches per cycle
system.cpu0.fetch.rate                       1.567936                       # Number of inst fetches per cycle
system.cpu0.decode.IdleCycles                 2925440                       # Number of cycles decode is idle
system.cpu0.decode.BlockedCycles              4091218                       # Number of cycles decode is blocked
system.cpu0.decode.RunCycles                  4982684                       # Number of cycles decode is running
system.cpu0.decode.UnblockCycles               425962                       # Number of cycles decode is unblocking
system.cpu0.decode.SquashCycles                448254                       # Number of cycles decode is squashing
system.cpu0.decode.DecodedInsts              37347569                       # Number of instructions handled by decode
system.cpu0.rename.SquashCycles                448254                       # Number of cycles rename is squashing
system.cpu0.rename.IdleCycles                 3244214                       # Number of cycles rename is idle
system.cpu0.rename.BlockCycles                2110038                       # Number of cycles rename is blocking
system.cpu0.rename.serializeStallCycles          4625                       # count of cycles rename stalled for serializing inst
system.cpu0.rename.RunCycles                  5051911                       # Number of cycles rename is running
system.cpu0.rename.UnblockCycles              2014516                       # Number of cycles rename is unblocking
system.cpu0.rename.RenamedInsts              35228013                       # Number of instructions processed by rename
system.cpu0.rename.ROBFullEvents                 7058                       # Number of times rename has blocked due to ROB full
system.cpu0.rename.IQFullEvents                 71069                       # Number of times rename has blocked due to IQ full
system.cpu0.rename.LQFullEvents                 32314                       # Number of times rename has blocked due to LQ full
system.cpu0.rename.SQFullEvents               1891276                       # Number of times rename has blocked due to SQ full
system.cpu0.rename.RenamedOperands           40209047                       # Number of destination operands rename has renamed
system.cpu0.rename.RenameLookups             86062779                       # Number of register rename lookups that rename has made
system.cpu0.rename.int_rename_lookups        49707084                       # Number of integer rename lookups
system.cpu0.rename.fp_rename_lookups           245803                       # Number of floating rename lookups
system.cpu0.rename.CommittedMaps             22734210                       # Number of HB maps that are committed
system.cpu0.rename.UndoneMaps                17474828                       # Number of HB maps that are undone due to squashing
system.cpu0.rename.serializingInsts                92                       # count of serializing insts renamed
system.cpu0.rename.tempSerializingInsts            89                       # count of temporary serializing insts renamed
system.cpu0.rename.skidInsts                   788914                       # count of insts added to the skid buffer
system.cpu0.memDep0.insertedLoads             3409057                       # Number of loads inserted to the mem dependence unit.
system.cpu0.memDep0.insertedStores            1748832                       # Number of stores inserted to the mem dependence unit.
system.cpu0.memDep0.conflictingLoads            88620                       # Number of conflicting loads.
system.cpu0.memDep0.conflictingStores           42682                       # Number of conflicting stores.
system.cpu0.iq.iqInstsAdded                  31135201                       # Number of instructions added to the IQ (excludes non-spec)
system.cpu0.iq.iqNonSpecInstsAdded               4892                       # Number of non-speculative instructions added to the IQ
system.cpu0.iq.iqInstsIssued                 27367216                       # Number of instructions issued
system.cpu0.iq.iqSquashedInstsIssued           247589                       # Number of squashed instructions issued
system.cpu0.iq.iqSquashedInstsExamined       11478515                       # Number of squashed instructions iterated over during squash; mainly for profiling
system.cpu0.iq.iqSquashedOperandsExamined     16316660                       # Number of squashed operands that are examined and possibly removed from graph
system.cpu0.iq.iqSquashedNonSpecRemoved          4329                       # Number of squashed non-spec instructions that were removed
system.cpu0.iq.issued_per_cycle::samples     12873558                       # Number of insts issued each cycle
system.cpu0.iq.issued_per_cycle::mean        2.125847                       # Number of insts issued each cycle
system.cpu0.iq.issued_per_cycle::stdev       2.539994                       # Number of insts issued each cycle
system.cpu0.iq.issued_per_cycle::underflows            0      0.00%      0.00% # Number of insts issued each cycle
system.cpu0.iq.issued_per_cycle::0            6258869     48.62%     48.62% # Number of insts issued each cycle
system.cpu0.iq.issued_per_cycle::1             906482      7.04%     55.66% # Number of insts issued each cycle
system.cpu0.iq.issued_per_cycle::2             911850      7.08%     62.74% # Number of insts issued each cycle
system.cpu0.iq.issued_per_cycle::3             850624      6.61%     69.35% # Number of insts issued each cycle
system.cpu0.iq.issued_per_cycle::4             876030      6.80%     76.15% # Number of insts issued each cycle
system.cpu0.iq.issued_per_cycle::5             940793      7.31%     83.46% # Number of insts issued each cycle
system.cpu0.iq.issued_per_cycle::6            1275096      9.90%     93.37% # Number of insts issued each cycle
system.cpu0.iq.issued_per_cycle::7             604011      4.69%     98.06% # Number of insts issued each cycle
system.cpu0.iq.issued_per_cycle::8             249803      1.94%    100.00% # Number of insts issued each cycle
system.cpu0.iq.issued_per_cycle::overflows            0      0.00%    100.00% # Number of insts issued each cycle
system.cpu0.iq.issued_per_cycle::min_value            0                       # Number of insts issued each cycle
system.cpu0.iq.issued_per_cycle::max_value            8                       # Number of insts issued each cycle
system.cpu0.iq.issued_per_cycle::total       12873558                       # Number of insts issued each cycle
system.cpu0.iq.fu_full::No_OpClass                  0      0.00%      0.00% # attempts to use FU when none available
system.cpu0.iq.fu_full::IntAlu                 789535     92.02%     92.02% # attempts to use FU when none available
system.cpu0.iq.fu_full::IntMult                     0      0.00%     92.02% # attempts to use FU when none available
system.cpu0.iq.fu_full::IntDiv                      0      0.00%     92.02% # attempts to use FU when none available
system.cpu0.iq.fu_full::FloatAdd                 1323      0.15%     92.18% # attempts to use FU when none available
system.cpu0.iq.fu_full::FloatCmp                    0      0.00%     92.18% # attempts to use FU when none available
system.cpu0.iq.fu_full::FloatCvt                    0      0.00%     92.18% # attempts to use FU when none available
system.cpu0.iq.fu_full::FloatMult                   0      0.00%     92.18% # attempts to use FU when none available
system.cpu0.iq.fu_full::FloatMultAcc                0      0.00%     92.18% # attempts to use FU when none available
system.cpu0.iq.fu_full::FloatDiv                    0      0.00%     92.18% # attempts to use FU when none available
system.cpu0.iq.fu_full::FloatMisc                   0      0.00%     92.18% # attempts to use FU when none available
system.cpu0.iq.fu_full::FloatSqrt                   0      0.00%     92.18% # attempts to use FU when none available
system.cpu0.iq.fu_full::SimdAdd                     0      0.00%     92.18% # attempts to use FU when none available
system.cpu0.iq.fu_full::SimdAddAcc                  0      0.00%     92.18% # attempts to use FU when none available
system.cpu0.iq.fu_full::SimdAlu                     0      0.00%     92.18% # attempts to use FU when none available
system.cpu0.iq.fu_full::SimdCmp                     0      0.00%     92.18% # attempts to use FU when none available
system.cpu0.iq.fu_full::SimdCvt                     0      0.00%     92.18% # attempts to use FU when none available
system.cpu0.iq.fu_full::SimdMisc                    0      0.00%     92.18% # attempts to use FU when none available
system.cpu0.iq.fu_full::SimdMult                    0      0.00%     92.18% # attempts to use FU when none available
system.cpu0.iq.fu_full::SimdMultAcc                 0      0.00%     92.18% # attempts to use FU when none available
system.cpu0.iq.fu_full::SimdShift                   0      0.00%     92.18% # attempts to use FU when none available
system.cpu0.iq.fu_full::SimdShiftAcc                0      0.00%     92.18% # attempts to use FU when none available
system.cpu0.iq.fu_full::SimdSqrt                    0      0.00%     92.18% # attempts to use FU when none available
system.cpu0.iq.fu_full::SimdFloatAdd                0      0.00%     92.18% # attempts to use FU when none available
system.cpu0.iq.fu_full::SimdFloatAlu                0      0.00%     92.18% # attempts to use FU when none available
system.cpu0.iq.fu_full::SimdFloatCmp                0      0.00%     92.18% # attempts to use FU when none available
system.cpu0.iq.fu_full::SimdFloatCvt                0      0.00%     92.18% # attempts to use FU when none available
system.cpu0.iq.fu_full::SimdFloatDiv                0      0.00%     92.18% # attempts to use FU when none available
system.cpu0.iq.fu_full::SimdFloatMisc               0      0.00%     92.18% # attempts to use FU when none available
system.cpu0.iq.fu_full::SimdFloatMult               0      0.00%     92.18% # attempts to use FU when none available
system.cpu0.iq.fu_full::SimdFloatMultAcc            0      0.00%     92.18% # attempts to use FU when none available
system.cpu0.iq.fu_full::SimdFloatSqrt               0      0.00%     92.18% # attempts to use FU when none available
system.cpu0.iq.fu_full::MemRead                 41731      4.86%     97.04% # attempts to use FU when none available
system.cpu0.iq.fu_full::MemWrite                16512      1.92%     98.97% # attempts to use FU when none available
system.cpu0.iq.fu_full::FloatMemRead              501      0.06%     99.02% # attempts to use FU when none available
system.cpu0.iq.fu_full::FloatMemWrite            8366      0.98%    100.00% # attempts to use FU when none available
system.cpu0.iq.fu_full::IprAccess                   0      0.00%    100.00% # attempts to use FU when none available
system.cpu0.iq.fu_full::InstPrefetch                0      0.00%    100.00% # attempts to use FU when none available
system.cpu0.iq.FU_type_0::No_OpClass           255257      0.93%      0.93% # Type of FU issued
system.cpu0.iq.FU_type_0::IntAlu             22448447     82.03%     82.96% # Type of FU issued
system.cpu0.iq.FU_type_0::IntMult               32327      0.12%     83.08% # Type of FU issued
system.cpu0.iq.FU_type_0::IntDiv                85132      0.31%     83.39% # Type of FU issued
system.cpu0.iq.FU_type_0::FloatAdd              64430      0.24%     83.62% # Type of FU issued
system.cpu0.iq.FU_type_0::FloatCmp                  0      0.00%     83.62% # Type of FU issued
system.cpu0.iq.FU_type_0::FloatCvt                  0      0.00%     83.62% # Type of FU issued
system.cpu0.iq.FU_type_0::FloatMult                 0      0.00%     83.62% # Type of FU issued
system.cpu0.iq.FU_type_0::FloatMultAcc              0      0.00%     83.62% # Type of FU issued
system.cpu0.iq.FU_type_0::FloatDiv                  0      0.00%     83.62% # Type of FU issued
system.cpu0.iq.FU_type_0::FloatMisc                 0      0.00%     83.62% # Type of FU issued
system.cpu0.iq.FU_type_0::FloatSqrt                 0      0.00%     83.62% # Type of FU issued
system.cpu0.iq.FU_type_0::SimdAdd                   0      0.00%     83.62% # Type of FU issued
system.cpu0.iq.FU_type_0::SimdAddAcc                0      0.00%     83.62% # Type of FU issued
system.cpu0.iq.FU_type_0::SimdAlu                   0      0.00%     83.62% # Type of FU issued
system.cpu0.iq.FU_type_0::SimdCmp                   0      0.00%     83.62% # Type of FU issued
system.cpu0.iq.FU_type_0::SimdCvt                   0      0.00%     83.62% # Type of FU issued
system.cpu0.iq.FU_type_0::SimdMisc                  0      0.00%     83.62% # Type of FU issued
system.cpu0.iq.FU_type_0::SimdMult                  0      0.00%     83.62% # Type of FU issued
system.cpu0.iq.FU_type_0::SimdMultAcc               0      0.00%     83.62% # Type of FU issued
system.cpu0.iq.FU_type_0::SimdShift                 0      0.00%     83.62% # Type of FU issued
system.cpu0.iq.FU_type_0::SimdShiftAcc              0      0.00%     83.62% # Type of FU issued
system.cpu0.iq.FU_type_0::SimdSqrt                  0      0.00%     83.62% # Type of FU issued
system.cpu0.iq.FU_type_0::SimdFloatAdd              0      0.00%     83.62% # Type of FU issued
system.cpu0.iq.FU_type_0::SimdFloatAlu              0      0.00%     83.62% # Type of FU issued
system.cpu0.iq.FU_type_0::SimdFloatCmp              0      0.00%     83.62% # Type of FU issued
system.cpu0.iq.FU_type_0::SimdFloatCvt              0      0.00%     83.62% # Type of FU issued
system.cpu0.iq.FU_type_0::SimdFloatDiv              0      0.00%     83.62% # Type of FU issued
system.cpu0.iq.FU_type_0::SimdFloatMisc             0      0.00%     83.62% # Type of FU issued
system.cpu0.iq.FU_type_0::SimdFloatMult             0      0.00%     83.62% # Type of FU issued
system.cpu0.iq.FU_type_0::SimdFloatMultAcc            0      0.00%     83.62% # Type of FU issued
system.cpu0.iq.FU_type_0::SimdFloatSqrt             0      0.00%     83.62% # Type of FU issued
system.cpu0.iq.FU_type_0::MemRead             2993408     10.94%     94.56% # Type of FU issued
system.cpu0.iq.FU_type_0::MemWrite            1405460      5.14%     99.70% # Type of FU issued
system.cpu0.iq.FU_type_0::FloatMemRead          17381      0.06%     99.76% # Type of FU issued
system.cpu0.iq.FU_type_0::FloatMemWrite         65374      0.24%    100.00% # Type of FU issued
system.cpu0.iq.FU_type_0::IprAccess                 0      0.00%    100.00% # Type of FU issued
system.cpu0.iq.FU_type_0::InstPrefetch              0      0.00%    100.00% # Type of FU issued
system.cpu0.iq.FU_type_0::total              27367216                       # Type of FU issued
system.cpu0.iq.rate                          2.073343                       # Inst issue rate
system.cpu0.iq.fu_busy_cnt                     857968                       # FU busy when requested
system.cpu0.iq.fu_busy_rate                  0.031350                       # FU busy rate (busy events/executed inst)
system.cpu0.iq.int_inst_queue_reads          68399072                       # Number of integer instruction queue reads
system.cpu0.iq.int_inst_queue_writes         42375504                       # Number of integer instruction queue writes
system.cpu0.iq.int_inst_queue_wakeup_accesses     25683783                       # Number of integer instruction queue wakeup accesses
system.cpu0.iq.fp_inst_queue_reads             314475                       # Number of floating instruction queue reads
system.cpu0.iq.fp_inst_queue_writes            243821                       # Number of floating instruction queue writes
system.cpu0.iq.fp_inst_queue_wakeup_accesses       140875                       # Number of floating instruction queue wakeup accesses
system.cpu0.iq.vec_inst_queue_reads                 0                       # Number of vector instruction queue reads
system.cpu0.iq.vec_inst_queue_writes                0                       # Number of vector instruction queue writes
system.cpu0.iq.vec_inst_queue_wakeup_accesses            0                       # Number of vector instruction queue wakeup accesses
system.cpu0.iq.int_alu_accesses              27809283                       # Number of integer alu accesses
system.cpu0.iq.fp_alu_accesses                 160644                       # Number of floating point alu accesses
system.cpu0.iq.vec_alu_accesses                     0                       # Number of vector alu accesses
system.cpu0.iew.lsq.thread0.forwLoads          338440                       # Number of loads that had data forwarded from stores
system.cpu0.iew.lsq.thread0.invAddrLoads            0                       # Number of loads ignored due to an invalid address
system.cpu0.iew.lsq.thread0.squashedLoads      1331572                       # Number of loads squashed
system.cpu0.iew.lsq.thread0.ignoredResponses         6628                       # Number of memory responses ignored because the instruction is squashed
system.cpu0.iew.lsq.thread0.memOrderViolation          812                       # Number of memory ordering violations
system.cpu0.iew.lsq.thread0.squashedStores       658664                       # Number of stores squashed
system.cpu0.iew.lsq.thread0.invAddrSwpfs            0                       # Number of software prefetches ignored due to an invalid address
system.cpu0.iew.lsq.thread0.blockedLoads            0                       # Number of blocked loads due to partial load-store forwarding
system.cpu0.iew.lsq.thread0.rescheduledLoads         1187                       # Number of loads that were rescheduled
system.cpu0.iew.lsq.thread0.cacheBlocked          547                       # Number of times an access to memory failed due to the cache being blocked
system.cpu0.iew.iewIdleCycles                       0                       # Number of cycles IEW is idle
system.cpu0.iew.iewSquashCycles                448254                       # Number of cycles IEW is squashing
system.cpu0.iew.iewBlockCycles                1414990                       # Number of cycles IEW is blocking
system.cpu0.iew.iewUnblockCycles               513830                       # Number of cycles IEW is unblocking
system.cpu0.iew.iewDispatchedInsts           31140093                       # Number of instructions dispatched to IQ
system.cpu0.iew.iewDispSquashedInsts            41515                       # Number of squashed instructions skipped by dispatch
system.cpu0.iew.iewDispLoadInsts              3409057                       # Number of dispatched load instructions
system.cpu0.iew.iewDispStoreInsts             1748832                       # Number of dispatched store instructions
system.cpu0.iew.iewDispNonSpecInsts              1735                       # Number of dispatched non-speculative instructions
system.cpu0.iew.iewIQFullEvents                  1789                       # Number of times the IQ has become full, causing a stall
system.cpu0.iew.iewLSQFullEvents               511161                       # Number of times the LSQ has become full, causing a stall
system.cpu0.iew.memOrderViolationEvents           812                       # Number of memory order violations
system.cpu0.iew.predictedTakenIncorrect        161231                       # Number of branches that were predicted taken incorrectly
system.cpu0.iew.predictedNotTakenIncorrect       437825                       # Number of branches that were predicted not taken incorrectly
system.cpu0.iew.branchMispredicts              599056                       # Number of branch mispredicts detected at execute
system.cpu0.iew.iewExecutedInsts             26212962                       # Number of executed instructions
system.cpu0.iew.iewExecLoadInsts              2819668                       # Number of load instructions executed
system.cpu0.iew.iewExecSquashedInsts          1154254                       # Number of squashed instructions skipped in execute
system.cpu0.iew.exec_swp                            0                       # number of swp insts executed
system.cpu0.iew.exec_nop                            0                       # number of nop insts executed
system.cpu0.iew.exec_refs                     4184815                       # number of memory reference insts executed
system.cpu0.iew.exec_branches                 3057857                       # Number of branches executed
system.cpu0.iew.exec_stores                   1365147                       # Number of stores executed
system.cpu0.iew.exec_rate                    1.985897                       # Inst execution rate
system.cpu0.iew.wb_sent                      26021089                       # cumulative count of insts sent to commit
system.cpu0.iew.wb_count                     25824658                       # cumulative count of insts written-back
system.cpu0.iew.wb_producers                 18544686                       # num instructions producing a value
system.cpu0.iew.wb_consumers                 29388571                       # num instructions consuming a value
system.cpu0.iew.wb_rate                      1.956479                       # insts written-back per cycle
system.cpu0.iew.wb_fanout                    0.631017                       # average fanout of values written-back
system.cpu0.commit.commitSquashedInsts       11483169                       # The number of squashed insts skipped by commit
system.cpu0.commit.commitNonSpecStalls            563                       # The number of times commit has been forced to stall to communicate backwards
system.cpu0.commit.branchMispredicts           447752                       # The number of times a branch was mispredicted
system.cpu0.commit.committed_per_cycle::samples     11121868                       # Number of insts commited each cycle
system.cpu0.commit.committed_per_cycle::mean     1.767831                       # Number of insts commited each cycle
system.cpu0.commit.committed_per_cycle::stdev     2.625184                       # Number of insts commited each cycle
system.cpu0.commit.committed_per_cycle::underflows            0      0.00%      0.00% # Number of insts commited each cycle
system.cpu0.commit.committed_per_cycle::0      6063561     54.52%     54.52% # Number of insts commited each cycle
system.cpu0.commit.committed_per_cycle::1      1266561     11.39%     65.91% # Number of insts commited each cycle
system.cpu0.commit.committed_per_cycle::2       725013      6.52%     72.43% # Number of insts commited each cycle
system.cpu0.commit.committed_per_cycle::3       869348      7.82%     80.24% # Number of insts commited each cycle
system.cpu0.commit.committed_per_cycle::4       417669      3.76%     84.00% # Number of insts commited each cycle
system.cpu0.commit.committed_per_cycle::5       331593      2.98%     86.98% # Number of insts commited each cycle
system.cpu0.commit.committed_per_cycle::6       206354      1.86%     88.83% # Number of insts commited each cycle
system.cpu0.commit.committed_per_cycle::7       163970      1.47%     90.31% # Number of insts commited each cycle
system.cpu0.commit.committed_per_cycle::8      1077799      9.69%    100.00% # Number of insts commited each cycle
system.cpu0.commit.committed_per_cycle::overflows            0      0.00%    100.00% # Number of insts commited each cycle
system.cpu0.commit.committed_per_cycle::min_value            0                       # Number of insts commited each cycle
system.cpu0.commit.committed_per_cycle::max_value            8                       # Number of insts commited each cycle
system.cpu0.commit.committed_per_cycle::total     11121868                       # Number of insts commited each cycle
system.cpu0.commit.committedInsts            10000003                       # Number of instructions committed
system.cpu0.commit.committedOps              19661578                       # Number of ops (including micro ops) committed
system.cpu0.commit.swp_count                        0                       # Number of s/w prefetches committed
system.cpu0.commit.refs                       3167653                       # Number of memory references committed
system.cpu0.commit.loads                      2077485                       # Number of loads committed
system.cpu0.commit.membars                        356                       # Number of memory barriers committed
system.cpu0.commit.branches                   2501369                       # Number of branches committed
system.cpu0.commit.vec_insts                        0                       # Number of committed Vector instructions.
system.cpu0.commit.fp_insts                    116711                       # Number of committed floating point instructions.
system.cpu0.commit.int_insts                 19506988                       # Number of committed integer instructions.
system.cpu0.commit.function_calls              233591                       # Number of function calls committed.
system.cpu0.commit.op_class_0::No_OpClass        97238      0.49%      0.49% # Class of committed instruction
system.cpu0.commit.op_class_0::IntAlu        16233864     82.57%     83.06% # Class of committed instruction
system.cpu0.commit.op_class_0::IntMult          31317      0.16%     83.22% # Class of committed instruction
system.cpu0.commit.op_class_0::IntDiv           82813      0.42%     83.64% # Class of committed instruction
system.cpu0.commit.op_class_0::FloatAdd         48693      0.25%     83.89% # Class of committed instruction
system.cpu0.commit.op_class_0::FloatCmp             0      0.00%     83.89% # Class of committed instruction
system.cpu0.commit.op_class_0::FloatCvt             0      0.00%     83.89% # Class of committed instruction
system.cpu0.commit.op_class_0::FloatMult            0      0.00%     83.89% # Class of committed instruction
system.cpu0.commit.op_class_0::FloatMultAcc            0      0.00%     83.89% # Class of committed instruction
system.cpu0.commit.op_class_0::FloatDiv             0      0.00%     83.89% # Class of committed instruction
system.cpu0.commit.op_class_0::FloatMisc            0      0.00%     83.89% # Class of committed instruction
system.cpu0.commit.op_class_0::FloatSqrt            0      0.00%     83.89% # Class of committed instruction
system.cpu0.commit.op_class_0::SimdAdd              0      0.00%     83.89% # Class of committed instruction
system.cpu0.commit.op_class_0::SimdAddAcc            0      0.00%     83.89% # Class of committed instruction
system.cpu0.commit.op_class_0::SimdAlu              0      0.00%     83.89% # Class of committed instruction
system.cpu0.commit.op_class_0::SimdCmp              0      0.00%     83.89% # Class of committed instruction
system.cpu0.commit.op_class_0::SimdCvt              0      0.00%     83.89% # Class of committed instruction
system.cpu0.commit.op_class_0::SimdMisc             0      0.00%     83.89% # Class of committed instruction
system.cpu0.commit.op_class_0::SimdMult             0      0.00%     83.89% # Class of committed instruction
system.cpu0.commit.op_class_0::SimdMultAcc            0      0.00%     83.89% # Class of committed instruction
system.cpu0.commit.op_class_0::SimdShift            0      0.00%     83.89% # Class of committed instruction
system.cpu0.commit.op_class_0::SimdShiftAcc            0      0.00%     83.89% # Class of committed instruction
system.cpu0.commit.op_class_0::SimdSqrt             0      0.00%     83.89% # Class of committed instruction
system.cpu0.commit.op_class_0::SimdFloatAdd            0      0.00%     83.89% # Class of committed instruction
system.cpu0.commit.op_class_0::SimdFloatAlu            0      0.00%     83.89% # Class of committed instruction
system.cpu0.commit.op_class_0::SimdFloatCmp            0      0.00%     83.89% # Class of committed instruction
system.cpu0.commit.op_class_0::SimdFloatCvt            0      0.00%     83.89% # Class of committed instruction
system.cpu0.commit.op_class_0::SimdFloatDiv            0      0.00%     83.89% # Class of committed instruction
system.cpu0.commit.op_class_0::SimdFloatMisc            0      0.00%     83.89% # Class of committed instruction
system.cpu0.commit.op_class_0::SimdFloatMult            0      0.00%     83.89% # Class of committed instruction
system.cpu0.commit.op_class_0::SimdFloatMultAcc            0      0.00%     83.89% # Class of committed instruction
system.cpu0.commit.op_class_0::SimdFloatSqrt            0      0.00%     83.89% # Class of committed instruction
system.cpu0.commit.op_class_0::MemRead        2070868     10.53%     94.42% # Class of committed instruction
system.cpu0.commit.op_class_0::MemWrite       1031652      5.25%     99.67% # Class of committed instruction
system.cpu0.commit.op_class_0::FloatMemRead         6617      0.03%     99.70% # Class of committed instruction
system.cpu0.commit.op_class_0::FloatMemWrite        58516      0.30%    100.00% # Class of committed instruction
system.cpu0.commit.op_class_0::IprAccess            0      0.00%    100.00% # Class of committed instruction
system.cpu0.commit.op_class_0::InstPrefetch            0      0.00%    100.00% # Class of committed instruction
system.cpu0.commit.op_class_0::total         19661578                       # Class of committed instruction
system.cpu0.commit.bw_lim_events              1077799                       # number cycles where commit BW limit reached
system.cpu0.rob.rob_reads                    41188816                       # The number of ROB reads
system.cpu0.rob.rob_writes                   64080059                       # The number of ROB writes
system.cpu0.timesIdled                           3255                       # Number of times that the entire CPU went into an idle state and unscheduled itself
system.cpu0.idleCycles                         326000                       # Total number of cycles that the CPU has spent unscheduled due to idling
system.cpu0.committedInsts                   10000003                       # Number of Instructions Simulated
system.cpu0.committedOps                     19661578                       # Number of Ops (including micro ops) Simulated
system.cpu0.cpi                              1.319955                       # CPI: Cycles Per Instruction
system.cpu0.cpi_total                        1.319955                       # CPI: Total CPI of All Threads
system.cpu0.ipc                              0.757601                       # IPC: Instructions Per Cycle
system.cpu0.ipc_total                        0.757601                       # IPC: Total IPC of All Threads
system.cpu0.int_regfile_reads                34944739                       # number of integer regfile reads
system.cpu0.int_regfile_writes               21501680                       # number of integer regfile writes
system.cpu0.fp_regfile_reads                   179573                       # number of floating regfile reads
system.cpu0.fp_regfile_writes                   71875                       # number of floating regfile writes
system.cpu0.cc_regfile_reads                 14635687                       # number of cc regfile reads
system.cpu0.cc_regfile_writes                 7904878                       # number of cc regfile writes
system.cpu0.misc_regfile_reads               10737903                       # number of misc regfile reads
system.cpu0.dcache.tags.pwrStateResidencyTicks::UNDEFINED   4395452481                       # Cumulative time (in ticks) in various power states
system.cpu0.dcache.tags.replacements            31458                       # number of replacements
system.cpu0.dcache.tags.tagsinuse          507.858015                       # Cycle average of tags in use
system.cpu0.dcache.tags.total_refs            3494012                       # Total number of references to valid blocks.
system.cpu0.dcache.tags.sampled_refs            31970                       # Sample count of references to valid blocks.
system.cpu0.dcache.tags.avg_refs           109.290335                       # Average number of references to valid blocks.
system.cpu0.dcache.tags.warmup_cycle           155178                       # Cycle when the warmup percentage was hit.
system.cpu0.dcache.tags.occ_blocks::cpu0.data   507.858015                       # Average occupied blocks per requestor
system.cpu0.dcache.tags.occ_percent::cpu0.data     0.991910                       # Average percentage of cache occupancy
system.cpu0.dcache.tags.occ_percent::total     0.991910                       # Average percentage of cache occupancy
system.cpu0.dcache.tags.occ_task_id_blocks::1024          512                       # Occupied blocks per task id
system.cpu0.dcache.tags.age_task_id_blocks_1024::0          170                       # Occupied blocks per task id
system.cpu0.dcache.tags.age_task_id_blocks_1024::1          188                       # Occupied blocks per task id
system.cpu0.dcache.tags.age_task_id_blocks_1024::2          154                       # Occupied blocks per task id
system.cpu0.dcache.tags.occ_task_id_percent::1024            1                       # Percentage of cache occupancy per task id
system.cpu0.dcache.tags.tag_accesses         28305506                       # Number of tag accesses
system.cpu0.dcache.tags.data_accesses        28305506                       # Number of data accesses
system.cpu0.dcache.pwrStateResidencyTicks::UNDEFINED   4395452481                       # Cumulative time (in ticks) in various power states
system.cpu0.dcache.ReadReq_hits::cpu0.data      2420658                       # number of ReadReq hits
system.cpu0.dcache.ReadReq_hits::total        2420658                       # number of ReadReq hits
system.cpu0.dcache.WriteReq_hits::cpu0.data      1073020                       # number of WriteReq hits
system.cpu0.dcache.WriteReq_hits::total       1073020                       # number of WriteReq hits
system.cpu0.dcache.demand_hits::cpu0.data      3493678                       # number of demand (read+write) hits
system.cpu0.dcache.demand_hits::total         3493678                       # number of demand (read+write) hits
system.cpu0.dcache.overall_hits::cpu0.data      3493678                       # number of overall hits
system.cpu0.dcache.overall_hits::total        3493678                       # number of overall hits
system.cpu0.dcache.ReadReq_misses::cpu0.data        23274                       # number of ReadReq misses
system.cpu0.dcache.ReadReq_misses::total        23274                       # number of ReadReq misses
system.cpu0.dcache.WriteReq_misses::cpu0.data        17240                       # number of WriteReq misses
system.cpu0.dcache.WriteReq_misses::total        17240                       # number of WriteReq misses
system.cpu0.dcache.demand_misses::cpu0.data        40514                       # number of demand (read+write) misses
system.cpu0.dcache.demand_misses::total         40514                       # number of demand (read+write) misses
system.cpu0.dcache.overall_misses::cpu0.data        40514                       # number of overall misses
system.cpu0.dcache.overall_misses::total        40514                       # number of overall misses
system.cpu0.dcache.ReadReq_miss_latency::cpu0.data    532918881                       # number of ReadReq miss cycles
system.cpu0.dcache.ReadReq_miss_latency::total    532918881                       # number of ReadReq miss cycles
system.cpu0.dcache.WriteReq_miss_latency::cpu0.data   1027075229                       # number of WriteReq miss cycles
system.cpu0.dcache.WriteReq_miss_latency::total   1027075229                       # number of WriteReq miss cycles
system.cpu0.dcache.demand_miss_latency::cpu0.data   1559994110                       # number of demand (read+write) miss cycles
system.cpu0.dcache.demand_miss_latency::total   1559994110                       # number of demand (read+write) miss cycles
system.cpu0.dcache.overall_miss_latency::cpu0.data   1559994110                       # number of overall miss cycles
system.cpu0.dcache.overall_miss_latency::total   1559994110                       # number of overall miss cycles
system.cpu0.dcache.ReadReq_accesses::cpu0.data      2443932                       # number of ReadReq accesses(hits+misses)
system.cpu0.dcache.ReadReq_accesses::total      2443932                       # number of ReadReq accesses(hits+misses)
system.cpu0.dcache.WriteReq_accesses::cpu0.data      1090260                       # number of WriteReq accesses(hits+misses)
system.cpu0.dcache.WriteReq_accesses::total      1090260                       # number of WriteReq accesses(hits+misses)
system.cpu0.dcache.demand_accesses::cpu0.data      3534192                       # number of demand (read+write) accesses
system.cpu0.dcache.demand_accesses::total      3534192                       # number of demand (read+write) accesses
system.cpu0.dcache.overall_accesses::cpu0.data      3534192                       # number of overall (read+write) accesses
system.cpu0.dcache.overall_accesses::total      3534192                       # number of overall (read+write) accesses
system.cpu0.dcache.ReadReq_miss_rate::cpu0.data     0.009523                       # miss rate for ReadReq accesses
system.cpu0.dcache.ReadReq_miss_rate::total     0.009523                       # miss rate for ReadReq accesses
system.cpu0.dcache.WriteReq_miss_rate::cpu0.data     0.015813                       # miss rate for WriteReq accesses
system.cpu0.dcache.WriteReq_miss_rate::total     0.015813                       # miss rate for WriteReq accesses
system.cpu0.dcache.demand_miss_rate::cpu0.data     0.011463                       # miss rate for demand accesses
system.cpu0.dcache.demand_miss_rate::total     0.011463                       # miss rate for demand accesses
system.cpu0.dcache.overall_miss_rate::cpu0.data     0.011463                       # miss rate for overall accesses
system.cpu0.dcache.overall_miss_rate::total     0.011463                       # miss rate for overall accesses
system.cpu0.dcache.ReadReq_avg_miss_latency::cpu0.data 22897.605955                       # average ReadReq miss latency
system.cpu0.dcache.ReadReq_avg_miss_latency::total 22897.605955                       # average ReadReq miss latency
system.cpu0.dcache.WriteReq_avg_miss_latency::cpu0.data 59575.129292                       # average WriteReq miss latency
system.cpu0.dcache.WriteReq_avg_miss_latency::total 59575.129292                       # average WriteReq miss latency
system.cpu0.dcache.demand_avg_miss_latency::cpu0.data 38505.062694                       # average overall miss latency
system.cpu0.dcache.demand_avg_miss_latency::total 38505.062694                       # average overall miss latency
system.cpu0.dcache.overall_avg_miss_latency::cpu0.data 38505.062694                       # average overall miss latency
system.cpu0.dcache.overall_avg_miss_latency::total 38505.062694                       # average overall miss latency
system.cpu0.dcache.blocked_cycles::no_mshrs         5261                       # number of cycles access was blocked
system.cpu0.dcache.blocked_cycles::no_targets          283                       # number of cycles access was blocked
system.cpu0.dcache.blocked::no_mshrs              277                       # number of cycles access was blocked
system.cpu0.dcache.blocked::no_targets              3                       # number of cycles access was blocked
system.cpu0.dcache.avg_blocked_cycles::no_mshrs    18.992780                       # average number of cycles each access was blocked
system.cpu0.dcache.avg_blocked_cycles::no_targets    94.333333                       # average number of cycles each access was blocked
system.cpu0.dcache.writebacks::writebacks        25017                       # number of writebacks
system.cpu0.dcache.writebacks::total            25017                       # number of writebacks
system.cpu0.dcache.ReadReq_mshr_hits::cpu0.data         8037                       # number of ReadReq MSHR hits
system.cpu0.dcache.ReadReq_mshr_hits::total         8037                       # number of ReadReq MSHR hits
system.cpu0.dcache.WriteReq_mshr_hits::cpu0.data          179                       # number of WriteReq MSHR hits
system.cpu0.dcache.WriteReq_mshr_hits::total          179                       # number of WriteReq MSHR hits
system.cpu0.dcache.demand_mshr_hits::cpu0.data         8216                       # number of demand (read+write) MSHR hits
system.cpu0.dcache.demand_mshr_hits::total         8216                       # number of demand (read+write) MSHR hits
system.cpu0.dcache.overall_mshr_hits::cpu0.data         8216                       # number of overall MSHR hits
system.cpu0.dcache.overall_mshr_hits::total         8216                       # number of overall MSHR hits
system.cpu0.dcache.ReadReq_mshr_misses::cpu0.data        15237                       # number of ReadReq MSHR misses
system.cpu0.dcache.ReadReq_mshr_misses::total        15237                       # number of ReadReq MSHR misses
system.cpu0.dcache.WriteReq_mshr_misses::cpu0.data        17061                       # number of WriteReq MSHR misses
system.cpu0.dcache.WriteReq_mshr_misses::total        17061                       # number of WriteReq MSHR misses
system.cpu0.dcache.demand_mshr_misses::cpu0.data        32298                       # number of demand (read+write) MSHR misses
system.cpu0.dcache.demand_mshr_misses::total        32298                       # number of demand (read+write) MSHR misses
system.cpu0.dcache.overall_mshr_misses::cpu0.data        32298                       # number of overall MSHR misses
system.cpu0.dcache.overall_mshr_misses::total        32298                       # number of overall MSHR misses
system.cpu0.dcache.ReadReq_mshr_miss_latency::cpu0.data    308370321                       # number of ReadReq MSHR miss cycles
system.cpu0.dcache.ReadReq_mshr_miss_latency::total    308370321                       # number of ReadReq MSHR miss cycles
system.cpu0.dcache.WriteReq_mshr_miss_latency::cpu0.data   1007743580                       # number of WriteReq MSHR miss cycles
system.cpu0.dcache.WriteReq_mshr_miss_latency::total   1007743580                       # number of WriteReq MSHR miss cycles
system.cpu0.dcache.demand_mshr_miss_latency::cpu0.data   1316113901                       # number of demand (read+write) MSHR miss cycles
system.cpu0.dcache.demand_mshr_miss_latency::total   1316113901                       # number of demand (read+write) MSHR miss cycles
system.cpu0.dcache.overall_mshr_miss_latency::cpu0.data   1316113901                       # number of overall MSHR miss cycles
system.cpu0.dcache.overall_mshr_miss_latency::total   1316113901                       # number of overall MSHR miss cycles
system.cpu0.dcache.ReadReq_mshr_miss_rate::cpu0.data     0.006235                       # mshr miss rate for ReadReq accesses
system.cpu0.dcache.ReadReq_mshr_miss_rate::total     0.006235                       # mshr miss rate for ReadReq accesses
system.cpu0.dcache.WriteReq_mshr_miss_rate::cpu0.data     0.015649                       # mshr miss rate for WriteReq accesses
system.cpu0.dcache.WriteReq_mshr_miss_rate::total     0.015649                       # mshr miss rate for WriteReq accesses
system.cpu0.dcache.demand_mshr_miss_rate::cpu0.data     0.009139                       # mshr miss rate for demand accesses
system.cpu0.dcache.demand_mshr_miss_rate::total     0.009139                       # mshr miss rate for demand accesses
system.cpu0.dcache.overall_mshr_miss_rate::cpu0.data     0.009139                       # mshr miss rate for overall accesses
system.cpu0.dcache.overall_mshr_miss_rate::total     0.009139                       # mshr miss rate for overall accesses
system.cpu0.dcache.ReadReq_avg_mshr_miss_latency::cpu0.data 20238.256940                       # average ReadReq mshr miss latency
system.cpu0.dcache.ReadReq_avg_mshr_miss_latency::total 20238.256940                       # average ReadReq mshr miss latency
system.cpu0.dcache.WriteReq_avg_mshr_miss_latency::cpu0.data 59067.087510                       # average WriteReq mshr miss latency
system.cpu0.dcache.WriteReq_avg_mshr_miss_latency::total 59067.087510                       # average WriteReq mshr miss latency
system.cpu0.dcache.demand_avg_mshr_miss_latency::cpu0.data 40749.083566                       # average overall mshr miss latency
system.cpu0.dcache.demand_avg_mshr_miss_latency::total 40749.083566                       # average overall mshr miss latency
system.cpu0.dcache.overall_avg_mshr_miss_latency::cpu0.data 40749.083566                       # average overall mshr miss latency
system.cpu0.dcache.overall_avg_mshr_miss_latency::total 40749.083566                       # average overall mshr miss latency
system.cpu0.dtb_walker_cache.tags.pwrStateResidencyTicks::UNDEFINED   4395452481                       # Cumulative time (in ticks) in various power states
system.cpu0.dtb_walker_cache.tags.replacements            0                       # number of replacements
system.cpu0.dtb_walker_cache.tags.tagsinuse            0                       # Cycle average of tags in use
system.cpu0.dtb_walker_cache.tags.total_refs            0                       # Total number of references to valid blocks.
system.cpu0.dtb_walker_cache.tags.sampled_refs            0                       # Sample count of references to valid blocks.
system.cpu0.dtb_walker_cache.tags.avg_refs          nan                       # Average number of references to valid blocks.
system.cpu0.dtb_walker_cache.tags.warmup_cycle            0                       # Cycle when the warmup percentage was hit.
system.cpu0.dtb_walker_cache.tags.tag_accesses            0                       # Number of tag accesses
system.cpu0.dtb_walker_cache.tags.data_accesses            0                       # Number of data accesses
system.cpu0.dtb_walker_cache.pwrStateResidencyTicks::UNDEFINED   4395452481                       # Cumulative time (in ticks) in various power states
system.cpu0.dtb_walker_cache.blocked_cycles::no_mshrs            0                       # number of cycles access was blocked
system.cpu0.dtb_walker_cache.blocked_cycles::no_targets            0                       # number of cycles access was blocked
system.cpu0.dtb_walker_cache.blocked::no_mshrs            0                       # number of cycles access was blocked
system.cpu0.dtb_walker_cache.blocked::no_targets            0                       # number of cycles access was blocked
system.cpu0.dtb_walker_cache.avg_blocked_cycles::no_mshrs          nan                       # average number of cycles each access was blocked
system.cpu0.dtb_walker_cache.avg_blocked_cycles::no_targets          nan                       # average number of cycles each access was blocked
system.cpu0.icache.tags.pwrStateResidencyTicks::UNDEFINED   4395452481                       # Cumulative time (in ticks) in various power states
system.cpu0.icache.tags.replacements            28330                       # number of replacements
system.cpu0.icache.tags.tagsinuse          509.671602                       # Cycle average of tags in use
system.cpu0.icache.tags.total_refs            2875139                       # Total number of references to valid blocks.
system.cpu0.icache.tags.sampled_refs            28842                       # Sample count of references to valid blocks.
system.cpu0.icache.tags.avg_refs            99.685840                       # Average number of references to valid blocks.
system.cpu0.icache.tags.warmup_cycle            81252                       # Cycle when the warmup percentage was hit.
system.cpu0.icache.tags.occ_blocks::cpu0.inst   509.671602                       # Average occupied blocks per requestor
system.cpu0.icache.tags.occ_percent::cpu0.inst     0.995452                       # Average percentage of cache occupancy
system.cpu0.icache.tags.occ_percent::total     0.995452                       # Average percentage of cache occupancy
system.cpu0.icache.tags.occ_task_id_blocks::1024          512                       # Occupied blocks per task id
system.cpu0.icache.tags.age_task_id_blocks_1024::0          296                       # Occupied blocks per task id
system.cpu0.icache.tags.age_task_id_blocks_1024::1          128                       # Occupied blocks per task id
system.cpu0.icache.tags.age_task_id_blocks_1024::2           84                       # Occupied blocks per task id
system.cpu0.icache.tags.age_task_id_blocks_1024::3            4                       # Occupied blocks per task id
system.cpu0.icache.tags.occ_task_id_percent::1024            1                       # Percentage of cache occupancy per task id
system.cpu0.icache.tags.tag_accesses         23285906                       # Number of tag accesses
system.cpu0.icache.tags.data_accesses        23285906                       # Number of data accesses
system.cpu0.icache.pwrStateResidencyTicks::UNDEFINED   4395452481                       # Cumulative time (in ticks) in various power states
system.cpu0.icache.ReadReq_hits::cpu0.inst      2875139                       # number of ReadReq hits
system.cpu0.icache.ReadReq_hits::total        2875139                       # number of ReadReq hits
system.cpu0.icache.demand_hits::cpu0.inst      2875139                       # number of demand (read+write) hits
system.cpu0.icache.demand_hits::total         2875139                       # number of demand (read+write) hits
system.cpu0.icache.overall_hits::cpu0.inst      2875139                       # number of overall hits
system.cpu0.icache.overall_hits::total        2875139                       # number of overall hits
system.cpu0.icache.ReadReq_misses::cpu0.inst        31994                       # number of ReadReq misses
system.cpu0.icache.ReadReq_misses::total        31994                       # number of ReadReq misses
system.cpu0.icache.demand_misses::cpu0.inst        31994                       # number of demand (read+write) misses
system.cpu0.icache.demand_misses::total         31994                       # number of demand (read+write) misses
system.cpu0.icache.overall_misses::cpu0.inst        31994                       # number of overall misses
system.cpu0.icache.overall_misses::total        31994                       # number of overall misses
system.cpu0.icache.ReadReq_miss_latency::cpu0.inst    513967848                       # number of ReadReq miss cycles
system.cpu0.icache.ReadReq_miss_latency::total    513967848                       # number of ReadReq miss cycles
system.cpu0.icache.demand_miss_latency::cpu0.inst    513967848                       # number of demand (read+write) miss cycles
system.cpu0.icache.demand_miss_latency::total    513967848                       # number of demand (read+write) miss cycles
system.cpu0.icache.overall_miss_latency::cpu0.inst    513967848                       # number of overall miss cycles
system.cpu0.icache.overall_miss_latency::total    513967848                       # number of overall miss cycles
system.cpu0.icache.ReadReq_accesses::cpu0.inst      2907133                       # number of ReadReq accesses(hits+misses)
system.cpu0.icache.ReadReq_accesses::total      2907133                       # number of ReadReq accesses(hits+misses)
system.cpu0.icache.demand_accesses::cpu0.inst      2907133                       # number of demand (read+write) accesses
system.cpu0.icache.demand_accesses::total      2907133                       # number of demand (read+write) accesses
system.cpu0.icache.overall_accesses::cpu0.inst      2907133                       # number of overall (read+write) accesses
system.cpu0.icache.overall_accesses::total      2907133                       # number of overall (read+write) accesses
system.cpu0.icache.ReadReq_miss_rate::cpu0.inst     0.011005                       # miss rate for ReadReq accesses
system.cpu0.icache.ReadReq_miss_rate::total     0.011005                       # miss rate for ReadReq accesses
system.cpu0.icache.demand_miss_rate::cpu0.inst     0.011005                       # miss rate for demand accesses
system.cpu0.icache.demand_miss_rate::total     0.011005                       # miss rate for demand accesses
system.cpu0.icache.overall_miss_rate::cpu0.inst     0.011005                       # miss rate for overall accesses
system.cpu0.icache.overall_miss_rate::total     0.011005                       # miss rate for overall accesses
system.cpu0.icache.ReadReq_avg_miss_latency::cpu0.inst 16064.507345                       # average ReadReq miss latency
system.cpu0.icache.ReadReq_avg_miss_latency::total 16064.507345                       # average ReadReq miss latency
system.cpu0.icache.demand_avg_miss_latency::cpu0.inst 16064.507345                       # average overall miss latency
system.cpu0.icache.demand_avg_miss_latency::total 16064.507345                       # average overall miss latency
system.cpu0.icache.overall_avg_miss_latency::cpu0.inst 16064.507345                       # average overall miss latency
system.cpu0.icache.overall_avg_miss_latency::total 16064.507345                       # average overall miss latency
system.cpu0.icache.blocked_cycles::no_mshrs         4477                       # number of cycles access was blocked
system.cpu0.icache.blocked_cycles::no_targets            0                       # number of cycles access was blocked
system.cpu0.icache.blocked::no_mshrs               68                       # number of cycles access was blocked
system.cpu0.icache.blocked::no_targets              0                       # number of cycles access was blocked
system.cpu0.icache.avg_blocked_cycles::no_mshrs    65.838235                       # average number of cycles each access was blocked
system.cpu0.icache.avg_blocked_cycles::no_targets          nan                       # average number of cycles each access was blocked
system.cpu0.icache.writebacks::writebacks        28330                       # number of writebacks
system.cpu0.icache.writebacks::total            28330                       # number of writebacks
system.cpu0.icache.ReadReq_mshr_hits::cpu0.inst         3152                       # number of ReadReq MSHR hits
system.cpu0.icache.ReadReq_mshr_hits::total         3152                       # number of ReadReq MSHR hits
system.cpu0.icache.demand_mshr_hits::cpu0.inst         3152                       # number of demand (read+write) MSHR hits
system.cpu0.icache.demand_mshr_hits::total         3152                       # number of demand (read+write) MSHR hits
system.cpu0.icache.overall_mshr_hits::cpu0.inst         3152                       # number of overall MSHR hits
system.cpu0.icache.overall_mshr_hits::total         3152                       # number of overall MSHR hits
system.cpu0.icache.ReadReq_mshr_misses::cpu0.inst        28842                       # number of ReadReq MSHR misses
system.cpu0.icache.ReadReq_mshr_misses::total        28842                       # number of ReadReq MSHR misses
system.cpu0.icache.demand_mshr_misses::cpu0.inst        28842                       # number of demand (read+write) MSHR misses
system.cpu0.icache.demand_mshr_misses::total        28842                       # number of demand (read+write) MSHR misses
system.cpu0.icache.overall_mshr_misses::cpu0.inst        28842                       # number of overall MSHR misses
system.cpu0.icache.overall_mshr_misses::total        28842                       # number of overall MSHR misses
system.cpu0.icache.ReadReq_mshr_miss_latency::cpu0.inst    417418494                       # number of ReadReq MSHR miss cycles
system.cpu0.icache.ReadReq_mshr_miss_latency::total    417418494                       # number of ReadReq MSHR miss cycles
system.cpu0.icache.demand_mshr_miss_latency::cpu0.inst    417418494                       # number of demand (read+write) MSHR miss cycles
system.cpu0.icache.demand_mshr_miss_latency::total    417418494                       # number of demand (read+write) MSHR miss cycles
system.cpu0.icache.overall_mshr_miss_latency::cpu0.inst    417418494                       # number of overall MSHR miss cycles
system.cpu0.icache.overall_mshr_miss_latency::total    417418494                       # number of overall MSHR miss cycles
system.cpu0.icache.ReadReq_mshr_miss_rate::cpu0.inst     0.009921                       # mshr miss rate for ReadReq accesses
system.cpu0.icache.ReadReq_mshr_miss_rate::total     0.009921                       # mshr miss rate for ReadReq accesses
system.cpu0.icache.demand_mshr_miss_rate::cpu0.inst     0.009921                       # mshr miss rate for demand accesses
system.cpu0.icache.demand_mshr_miss_rate::total     0.009921                       # mshr miss rate for demand accesses
system.cpu0.icache.overall_mshr_miss_rate::cpu0.inst     0.009921                       # mshr miss rate for overall accesses
system.cpu0.icache.overall_mshr_miss_rate::total     0.009921                       # mshr miss rate for overall accesses
system.cpu0.icache.ReadReq_avg_mshr_miss_latency::cpu0.inst 14472.591845                       # average ReadReq mshr miss latency
system.cpu0.icache.ReadReq_avg_mshr_miss_latency::total 14472.591845                       # average ReadReq mshr miss latency
system.cpu0.icache.demand_avg_mshr_miss_latency::cpu0.inst 14472.591845                       # average overall mshr miss latency
system.cpu0.icache.demand_avg_mshr_miss_latency::total 14472.591845                       # average overall mshr miss latency
system.cpu0.icache.overall_avg_mshr_miss_latency::cpu0.inst 14472.591845                       # average overall mshr miss latency
system.cpu0.icache.overall_avg_mshr_miss_latency::total 14472.591845                       # average overall mshr miss latency
system.cpu0.itb_walker_cache.tags.pwrStateResidencyTicks::UNDEFINED   4395452481                       # Cumulative time (in ticks) in various power states
system.cpu0.itb_walker_cache.tags.replacements            0                       # number of replacements
system.cpu0.itb_walker_cache.tags.tagsinuse            0                       # Cycle average of tags in use
system.cpu0.itb_walker_cache.tags.total_refs            0                       # Total number of references to valid blocks.
system.cpu0.itb_walker_cache.tags.sampled_refs            0                       # Sample count of references to valid blocks.
system.cpu0.itb_walker_cache.tags.avg_refs          nan                       # Average number of references to valid blocks.
system.cpu0.itb_walker_cache.tags.warmup_cycle            0                       # Cycle when the warmup percentage was hit.
system.cpu0.itb_walker_cache.tags.tag_accesses            0                       # Number of tag accesses
system.cpu0.itb_walker_cache.tags.data_accesses            0                       # Number of data accesses
system.cpu0.itb_walker_cache.pwrStateResidencyTicks::UNDEFINED   4395452481                       # Cumulative time (in ticks) in various power states
system.cpu0.itb_walker_cache.blocked_cycles::no_mshrs            0                       # number of cycles access was blocked
system.cpu0.itb_walker_cache.blocked_cycles::no_targets            0                       # number of cycles access was blocked
system.cpu0.itb_walker_cache.blocked::no_mshrs            0                       # number of cycles access was blocked
system.cpu0.itb_walker_cache.blocked::no_targets            0                       # number of cycles access was blocked
system.cpu0.itb_walker_cache.avg_blocked_cycles::no_mshrs          nan                       # average number of cycles each access was blocked
system.cpu0.itb_walker_cache.avg_blocked_cycles::no_targets          nan                       # average number of cycles each access was blocked
system.cpu0.l2cache.tags.pwrStateResidencyTicks::UNDEFINED   4395452481                       # Cumulative time (in ticks) in various power states
system.cpu0.l2cache.tags.replacements           27010                       # number of replacements
system.cpu0.l2cache.tags.tagsinuse        3521.926139                       # Cycle average of tags in use
system.cpu0.l2cache.tags.total_refs             89354                       # Total number of references to valid blocks.
system.cpu0.l2cache.tags.sampled_refs           31106                       # Sample count of references to valid blocks.
system.cpu0.l2cache.tags.avg_refs            2.872565                       # Average number of references to valid blocks.
system.cpu0.l2cache.tags.warmup_cycle           78000                       # Cycle when the warmup percentage was hit.
system.cpu0.l2cache.tags.occ_blocks::writebacks   234.622949                       # Average occupied blocks per requestor
system.cpu0.l2cache.tags.occ_blocks::cpu0.inst   785.871821                       # Average occupied blocks per requestor
system.cpu0.l2cache.tags.occ_blocks::cpu0.data  2501.431370                       # Average occupied blocks per requestor
system.cpu0.l2cache.tags.occ_percent::writebacks     0.057281                       # Average percentage of cache occupancy
system.cpu0.l2cache.tags.occ_percent::cpu0.inst     0.191863                       # Average percentage of cache occupancy
system.cpu0.l2cache.tags.occ_percent::cpu0.data     0.610701                       # Average percentage of cache occupancy
system.cpu0.l2cache.tags.occ_percent::total     0.859845                       # Average percentage of cache occupancy
system.cpu0.l2cache.tags.occ_task_id_blocks::1024         4096                       # Occupied blocks per task id
system.cpu0.l2cache.tags.age_task_id_blocks_1024::0          107                       # Occupied blocks per task id
system.cpu0.l2cache.tags.age_task_id_blocks_1024::1          567                       # Occupied blocks per task id
system.cpu0.l2cache.tags.age_task_id_blocks_1024::2         3341                       # Occupied blocks per task id
system.cpu0.l2cache.tags.age_task_id_blocks_1024::3           81                       # Occupied blocks per task id
system.cpu0.l2cache.tags.occ_task_id_percent::1024            1                       # Percentage of cache occupancy per task id
system.cpu0.l2cache.tags.tag_accesses          514246                       # Number of tag accesses
system.cpu0.l2cache.tags.data_accesses         514246                       # Number of data accesses
system.cpu0.l2cache.pwrStateResidencyTicks::UNDEFINED   4395452481                       # Cumulative time (in ticks) in various power states
system.cpu0.l2cache.WritebackDirty_hits::writebacks        25017                       # number of WritebackDirty hits
system.cpu0.l2cache.WritebackDirty_hits::total        25017                       # number of WritebackDirty hits
system.cpu0.l2cache.WritebackClean_hits::writebacks        28273                       # number of WritebackClean hits
system.cpu0.l2cache.WritebackClean_hits::total        28273                       # number of WritebackClean hits
system.cpu0.l2cache.UpgradeReq_hits::cpu0.data          324                       # number of UpgradeReq hits
system.cpu0.l2cache.UpgradeReq_hits::total          324                       # number of UpgradeReq hits
system.cpu0.l2cache.ReadExReq_hits::cpu0.data          468                       # number of ReadExReq hits
system.cpu0.l2cache.ReadExReq_hits::total          468                       # number of ReadExReq hits
system.cpu0.l2cache.ReadCleanReq_hits::cpu0.inst        22845                       # number of ReadCleanReq hits
system.cpu0.l2cache.ReadCleanReq_hits::total        22845                       # number of ReadCleanReq hits
system.cpu0.l2cache.ReadSharedReq_hits::cpu0.data         8979                       # number of ReadSharedReq hits
system.cpu0.l2cache.ReadSharedReq_hits::total         8979                       # number of ReadSharedReq hits
[...]
system.l3.demand_mshr_miss_latency::cpu2.inst    232551401                       # number of demand (read+write) MSHR miss cycles
system.l3.demand_mshr_miss_latency::cpu2.data    928225461                       # number of demand (read+write) MSHR miss cycles
system.l3.demand_mshr_miss_latency::cpu3.inst    230810897                       # number of demand (read+write) MSHR miss cycles
system.l3.demand_mshr_miss_latency::cpu3.data    923142121                       # number of demand (read+write) MSHR miss cycles
system.l3.demand_mshr_miss_latency::total   4634966154                       # number of demand (read+write) MSHR miss cycles
system.l3.overall_mshr_miss_latency::cpu0.inst    231523021                       # number of overall MSHR miss cycles
system.l3.overall_mshr_miss_latency::cpu0.data    928425756                       # number of overall MSHR miss cycles
system.l3.overall_mshr_miss_latency::cpu1.inst    236614250                       # number of overall MSHR miss cycles
system.l3.overall_mshr_miss_latency::cpu1.data    923673247                       # number of overall MSHR miss cycles
system.l3.overall_mshr_miss_latency::cpu2.inst    232551401                       # number of overall MSHR miss cycles
system.l3.overall_mshr_miss_latency::cpu2.data    928225461                       # number of overall MSHR miss cycles
system.l3.overall_mshr_miss_latency::cpu3.inst    230810897                       # number of overall MSHR miss cycles
system.l3.overall_mshr_miss_latency::cpu3.data    923142121                       # number of overall MSHR miss cycles
system.l3.overall_mshr_miss_latency::total   4634966154                       # number of overall MSHR miss cycles
system.l3.ReadExReq_mshr_miss_rate::cpu0.data     0.990663                       # mshr miss rate for ReadExReq accesses
system.l3.ReadExReq_mshr_miss_rate::cpu1.data     0.989711                       # mshr miss rate for ReadExReq accesses
system.l3.ReadExReq_mshr_miss_rate::cpu2.data     0.989366                       # mshr miss rate for ReadExReq accesses
system.l3.ReadExReq_mshr_miss_rate::cpu3.data     0.991291                       # mshr miss rate for ReadExReq accesses
system.l3.ReadExReq_mshr_miss_rate::total     0.990258                       # mshr miss rate for ReadExReq accesses
system.l3.ReadSharedReq_mshr_miss_rate::cpu0.inst     0.731386                       # mshr miss rate for ReadSharedReq accesses
system.l3.ReadSharedReq_mshr_miss_rate::cpu0.data     0.439782                       # mshr miss rate for ReadSharedReq accesses
system.l3.ReadSharedReq_mshr_miss_rate::cpu1.inst     0.739116                       # mshr miss rate for ReadSharedReq accesses
system.l3.ReadSharedReq_mshr_miss_rate::cpu1.data     0.429362                       # mshr miss rate for ReadSharedReq accesses
system.l3.ReadSharedReq_mshr_miss_rate::cpu2.inst     0.722039                       # mshr miss rate for ReadSharedReq accesses
system.l3.ReadSharedReq_mshr_miss_rate::cpu2.data     0.415341                       # mshr miss rate for ReadSharedReq accesses
system.l3.ReadSharedReq_mshr_miss_rate::cpu3.inst     0.733378                       # mshr miss rate for ReadSharedReq accesses
system.l3.ReadSharedReq_mshr_miss_rate::cpu3.data     0.430981                       # mshr miss rate for ReadSharedReq accesses
system.l3.ReadSharedReq_mshr_miss_rate::total     0.574861                       # mshr miss rate for ReadSharedReq accesses
system.l3.demand_mshr_miss_rate::cpu0.inst     0.731386                       # mshr miss rate for demand accesses
system.l3.demand_mshr_miss_rate::cpu0.data     0.837943                       # mshr miss rate for demand accesses
system.l3.demand_mshr_miss_rate::cpu1.inst     0.739116                       # mshr miss rate for demand accesses
system.l3.demand_mshr_miss_rate::cpu1.data     0.831283                       # mshr miss rate for demand accesses
system.l3.demand_mshr_miss_rate::cpu2.inst     0.722039                       # mshr miss rate for demand accesses
system.l3.demand_mshr_miss_rate::cpu2.data     0.821904                       # mshr miss rate for demand accesses
system.l3.demand_mshr_miss_rate::cpu3.inst     0.733378                       # mshr miss rate for demand accesses
system.l3.demand_mshr_miss_rate::cpu3.data     0.831673                       # mshr miss rate for demand accesses
system.l3.demand_mshr_miss_rate::total       0.809857                       # mshr miss rate for demand accesses
system.l3.overall_mshr_miss_rate::cpu0.inst     0.731386                       # mshr miss rate for overall accesses
system.l3.overall_mshr_miss_rate::cpu0.data     0.837943                       # mshr miss rate for overall accesses
system.l3.overall_mshr_miss_rate::cpu1.inst     0.739116                       # mshr miss rate for overall accesses
system.l3.overall_mshr_miss_rate::cpu1.data     0.831283                       # mshr miss rate for overall accesses
system.l3.overall_mshr_miss_rate::cpu2.inst     0.722039                       # mshr miss rate for overall accesses
system.l3.overall_mshr_miss_rate::cpu2.data     0.821904                       # mshr miss rate for overall accesses
system.l3.overall_mshr_miss_rate::cpu3.inst     0.733378                       # mshr miss rate for overall accesses
system.l3.overall_mshr_miss_rate::cpu3.data     0.831673                       # mshr miss rate for overall accesses
system.l3.overall_mshr_miss_rate::total      0.809857                       # mshr miss rate for overall accesses
system.l3.ReadExReq_avg_mshr_miss_latency::cpu0.data 47148.708067                       # average ReadExReq mshr miss latency
system.l3.ReadExReq_avg_mshr_miss_latency::cpu1.data 47809.655346                       # average ReadExReq mshr miss latency
system.l3.ReadExReq_avg_mshr_miss_latency::cpu2.data 47234.310899                       # average ReadExReq mshr miss latency
system.l3.ReadExReq_avg_mshr_miss_latency::cpu3.data 47378.069967                       # average ReadExReq mshr miss latency
system.l3.ReadExReq_avg_mshr_miss_latency::total 47391.369823                       # average ReadExReq mshr miss latency
system.l3.ReadSharedReq_avg_mshr_miss_latency::cpu0.inst 52847.071673                       # average ReadSharedReq mshr miss latency
system.l3.ReadSharedReq_avg_mshr_miss_latency::cpu0.data 61201.216679                       # average ReadSharedReq mshr miss latency
system.l3.ReadSharedReq_avg_mshr_miss_latency::cpu1.inst 54021.518265                       # average ReadSharedReq mshr miss latency
system.l3.ReadSharedReq_avg_mshr_miss_latency::cpu1.data 60753.945099                       # average ReadSharedReq mshr miss latency
system.l3.ReadSharedReq_avg_mshr_miss_latency::cpu2.inst 53130.317798                       # average ReadSharedReq mshr miss latency
system.l3.ReadSharedReq_avg_mshr_miss_latency::cpu2.data 62299.247561                       # average ReadSharedReq mshr miss latency
system.l3.ReadSharedReq_avg_mshr_miss_latency::cpu3.inst 52841.322573                       # average ReadSharedReq mshr miss latency
system.l3.ReadSharedReq_avg_mshr_miss_latency::cpu3.data 60914.926812                       # average ReadSharedReq mshr miss latency
system.l3.ReadSharedReq_avg_mshr_miss_latency::total 56327.923806                       # average ReadSharedReq mshr miss latency
system.l3.demand_avg_mshr_miss_latency::cpu0.inst 52847.071673                       # average overall mshr miss latency
system.l3.demand_avg_mshr_miss_latency::cpu0.data 49193.332062                       # average overall mshr miss latency
system.l3.demand_avg_mshr_miss_latency::cpu1.inst 54021.518265                       # average overall mshr miss latency
system.l3.demand_avg_mshr_miss_latency::cpu1.data 49699.932580                       # average overall mshr miss latency
system.l3.demand_avg_mshr_miss_latency::cpu2.inst 53130.317798                       # average overall mshr miss latency
system.l3.demand_avg_mshr_miss_latency::cpu2.data 49455.243273                       # average overall mshr miss latency
system.l3.demand_avg_mshr_miss_latency::cpu3.inst 52841.322573                       # average overall mshr miss latency
system.l3.demand_avg_mshr_miss_latency::cpu3.data 49376.450631                       # average overall mshr miss latency
system.l3.demand_avg_mshr_miss_latency::total 50146.232827                       # average overall mshr miss latency
system.l3.overall_avg_mshr_miss_latency::cpu0.inst 52847.071673                       # average overall mshr miss latency
system.l3.overall_avg_mshr_miss_latency::cpu0.data 49193.332062                       # average overall mshr miss latency
system.l3.overall_avg_mshr_miss_latency::cpu1.inst 54021.518265                       # average overall mshr miss latency
system.l3.overall_avg_mshr_miss_latency::cpu1.data 49699.932580                       # average overall mshr miss latency
system.l3.overall_avg_mshr_miss_latency::cpu2.inst 53130.317798                       # average overall mshr miss latency
system.l3.overall_avg_mshr_miss_latency::cpu2.data 49455.243273                       # average overall mshr miss latency
system.l3.overall_avg_mshr_miss_latency::cpu3.inst 52841.322573                       # average overall mshr miss latency
system.l3.overall_avg_mshr_miss_latency::cpu3.data 49376.450631                       # average overall mshr miss latency
system.l3.overall_avg_mshr_miss_latency::total 50146.232827                       # average overall mshr miss latency
system.membus.snoop_filter.tot_requests         92525                       # Total number of requests made to the snoop filter.
system.membus.snoop_filter.hit_single_requests           96                       # Number of requests hitting in the snoop filter with a single holder of the requested data.
system.membus.snoop_filter.hit_multi_requests            0                       # Number of requests hitting in the snoop filter with multiple (>1) holders of the requested data.
system.membus.snoop_filter.tot_snoops               0                       # Total number of snoops made to the snoop filter.
system.membus.snoop_filter.hit_single_snoops            0                       # Number of snoops hitting in the snoop filter with a single holder of the requested data.
system.membus.snoop_filter.hit_multi_snoops            0                       # Number of snoops hitting in the snoop filter with multiple (>1) holders of the requested data.
system.membus.pwrStateResidencyTicks::UNDEFINED   4395452481                       # Cumulative time (in ticks) in various power states
system.membus.trans_dist::ReadResp              28493                       # Transaction distribution
system.membus.trans_dist::WritebackDirty           58                       # Transaction distribution
system.membus.trans_dist::CleanEvict               38                       # Transaction distribution
system.membus.trans_dist::ReadExReq             63936                       # Transaction distribution
system.membus.trans_dist::ReadExResp            63936                       # Transaction distribution
system.membus.trans_dist::ReadSharedReq         28493                       # Transaction distribution
system.membus.pkt_count_system.l3.mem_side::system.mem_ctrls.port       184954                       # Packet count per connected master and slave (bytes)
system.membus.pkt_count_system.l3.mem_side::total       184954                       # Packet count per connected master and slave (bytes)
system.membus.pkt_count::total                 184954                       # Packet count per connected master and slave (bytes)
system.membus.pkt_size_system.l3.mem_side::system.mem_ctrls.port      5919168                       # Cumulative packet size per connected master and slave (bytes)
system.membus.pkt_size_system.l3.mem_side::total      5919168                       # Cumulative packet size per connected master and slave (bytes)
system.membus.pkt_size::total                 5919168                       # Cumulative packet size per connected master and slave (bytes)
system.membus.snoops                                0                       # Total snoops (count)
system.membus.snoopTraffic                          0                       # Total snoop traffic (bytes)
system.membus.snoop_fanout::samples             92429                       # Request fanout histogram
system.membus.snoop_fanout::mean                    0                       # Request fanout histogram
system.membus.snoop_fanout::stdev                   0                       # Request fanout histogram
system.membus.snoop_fanout::underflows              0      0.00%      0.00% # Request fanout histogram
system.membus.snoop_fanout::0                   92429    100.00%    100.00% # Request fanout histogram
system.membus.snoop_fanout::1                       0      0.00%    100.00% # Request fanout histogram
system.membus.snoop_fanout::overflows               0      0.00%    100.00% # Request fanout histogram
system.membus.snoop_fanout::min_value               0                       # Request fanout histogram
system.membus.snoop_fanout::max_value               0                       # Request fanout histogram
system.membus.snoop_fanout::total               92429                       # Request fanout histogram
system.membus.reqLayer8.occupancy           120819270                       # Layer occupancy (ticks)
system.membus.reqLayer8.utilization               2.7                       # Layer utilization (%)
system.membus.respLayer1.occupancy          503357358                       # Layer occupancy (ticks)
system.membus.respLayer1.utilization             11.5                       # Layer utilization (%)
system.tol3bus.snoop_filter.tot_requests       212012                       # Total number of requests made to the snoop filter.
system.tol3bus.snoop_filter.hit_single_requests        97906                       # Number of requests hitting in the snoop filter with a single holder of the requested data.
system.tol3bus.snoop_filter.hit_multi_requests            0                       # Number of requests hitting in the snoop filter with multiple (>1) holders of the requested data.
system.tol3bus.snoop_filter.tot_snoops              2                       # Total number of snoops made to the snoop filter.
system.tol3bus.snoop_filter.hit_single_snoops            2                       # Number of snoops hitting in the snoop filter with a single holder of the requested data.
system.tol3bus.snoop_filter.hit_multi_snoops            0                       # Number of snoops hitting in the snoop filter with multiple (>1) holders of the requested data.
system.tol3bus.pwrStateResidencyTicks::UNDEFINED   4395452481                       # Cumulative time (in ticks) in various power states
system.tol3bus.trans_dist::ReadResp             49565                       # Transaction distribution
system.tol3bus.trans_dist::WritebackDirty        73574                       # Transaction distribution
system.tol3bus.trans_dist::CleanEvict           24392                       # Transaction distribution
system.tol3bus.trans_dist::UpgradeReq              14                       # Transaction distribution
system.tol3bus.trans_dist::UpgradeResp             14                       # Transaction distribution
system.tol3bus.trans_dist::ReadExReq            64565                       # Transaction distribution
system.tol3bus.trans_dist::ReadExResp           64565                       # Transaction distribution
system.tol3bus.trans_dist::ReadSharedReq        49565                       # Transaction distribution
system.tol3bus.pkt_count_system.cpu0.l2cache.mem_side::system.l3.cpu_side        81411                       # Packet count per connected master and slave (bytes)
system.tol3bus.pkt_count_system.cpu1.l2cache.mem_side::system.l3.cpu_side        80804                       # Packet count per connected master and slave (bytes)
system.tol3bus.pkt_count_system.cpu2.l2cache.mem_side::system.l3.cpu_side        82670                       # Packet count per connected master and slave (bytes)
system.tol3bus.pkt_count_system.cpu3.l2cache.mem_side::system.l3.cpu_side        81271                       # Packet count per connected master and slave (bytes)
system.tol3bus.pkt_count::total                326156                       # Packet count per connected master and slave (bytes)
system.tol3bus.pkt_size_system.cpu0.l2cache.mem_side::system.l3.cpu_side      2998784                       # Cumulative packet size per connected master and slave (bytes)
system.tol3bus.pkt_size_system.cpu1.l2cache.mem_side::system.l3.cpu_side      2977280                       # Cumulative packet size per connected master and slave (bytes)
system.tol3bus.pkt_size_system.cpu2.l2cache.mem_side::system.l3.cpu_side      3042624                       # Cumulative packet size per connected master and slave (bytes)
system.tol3bus.pkt_size_system.cpu3.l2cache.mem_side::system.l3.cpu_side      2990656                       # Cumulative packet size per connected master and slave (bytes)
system.tol3bus.pkt_size::total               12009344                       # Cumulative packet size per connected master and slave (bytes)
system.tol3bus.snoops                              98                       # Total snoops (count)
system.tol3bus.snoopTraffic                      3712                       # Total snoop traffic (bytes)
system.tol3bus.snoop_fanout::samples           114242                       # Request fanout histogram
system.tol3bus.snoop_fanout::mean            0.000018                       # Request fanout histogram
system.tol3bus.snoop_fanout::stdev           0.004184                       # Request fanout histogram
system.tol3bus.snoop_fanout::underflows             0      0.00%      0.00% # Request fanout histogram
system.tol3bus.snoop_fanout::0                 114240    100.00%    100.00% # Request fanout histogram
system.tol3bus.snoop_fanout::1                      2      0.00%    100.00% # Request fanout histogram
system.tol3bus.snoop_fanout::2                      0      0.00%    100.00% # Request fanout histogram
system.tol3bus.snoop_fanout::3                      0      0.00%    100.00% # Request fanout histogram
system.tol3bus.snoop_fanout::4                      0      0.00%    100.00% # Request fanout histogram
system.tol3bus.snoop_fanout::overflows              0      0.00%    100.00% # Request fanout histogram
system.tol3bus.snoop_fanout::min_value              0                       # Request fanout histogram
system.tol3bus.snoop_fanout::max_value              1                       # Request fanout histogram
system.tol3bus.snoop_fanout::total             114242                       # Request fanout histogram
system.tol3bus.reqLayer0.occupancy          422907183                       # Layer occupancy (ticks)
system.tol3bus.reqLayer0.utilization              9.6                       # Layer utilization (%)
system.tol3bus.respLayer0.occupancy          91001625                       # Layer occupancy (ticks)
system.tol3bus.respLayer0.utilization             2.1                       # Layer utilization (%)
system.tol3bus.respLayer1.occupancy          90311038                       # Layer occupancy (ticks)
system.tol3bus.respLayer1.utilization             2.1                       # Layer utilization (%)
system.tol3bus.respLayer2.occupancy          92255969                       # Layer occupancy (ticks)
system.tol3bus.respLayer2.utilization             2.1                       # Layer utilization (%)
system.tol3bus.respLayer3.occupancy          90774732                       # Layer occupancy (ticks)
system.tol3bus.respLayer3.utilization             2.1                       # Layer utilization (%)

---------- End Simulation Statistics   ----------
