
---------- Begin Simulation Statistics ----------
sim_seconds                                  0.027789                       # Number of seconds simulated
sim_ticks                                 27788576274                       # Number of ticks simulated
final_tick                                27788576274                       # Number of ticks from beginning of simulation (restored from checkpoints and never reset)
sim_freq                                 1000000000000                       # Frequency of simulated ticks
host_inst_rate                                 235925                       # Simulator instruction rate (inst/s)
host_op_rate                                   352903                       # Simulator op (including micro ops) rate (op/s)
host_tick_rate                                8275942                       # Simulator tick rate (ticks/s)
host_mem_usage                               33900628                       # Number of bytes of host memory used
host_seconds                                  3357.75                       # Real time elapsed on the host
sim_insts                                   792178473                       # Number of instructions simulated
sim_ops                                    1184961640                       # Number of ops (including micro ops) simulated
system.voltage_domain.voltage                       1                       # Voltage in Volts
system.clk_domain.clock                          1000                       # Clock period in ticks
system.mem_ctrls.pwrStateResidencyTicks::UNDEFINED  27788576274                       # Cumulative time (in ticks) in various power states
system.mem_ctrls.bytes_read::cpu0.inst          85696                       # Number of bytes read from this memory
system.mem_ctrls.bytes_read::cpu0.data         843840                       # Number of bytes read from this memory
system.mem_ctrls.bytes_read::cpu1.inst          85632                       # Number of bytes read from this memory
system.mem_ctrls.bytes_read::cpu1.data         844288                       # Number of bytes read from this memory
system.mem_ctrls.bytes_read::cpu2.inst          86464                       # Number of bytes read from this memory
system.mem_ctrls.bytes_read::cpu2.data         843072                       # Number of bytes read from this memory
system.mem_ctrls.bytes_read::cpu3.inst          86272                       # Number of bytes read from this memory
system.mem_ctrls.bytes_read::cpu3.data         843456                       # Number of bytes read from this memory
system.mem_ctrls.bytes_read::total            3718720                       # Number of bytes read from this memory
system.mem_ctrls.bytes_inst_read::cpu0.inst        85696                       # Number of instructions bytes read from this memory
system.mem_ctrls.bytes_inst_read::cpu1.inst        85632                       # Number of instructions bytes read from this memory
system.mem_ctrls.bytes_inst_read::cpu2.inst        86464                       # Number of instructions bytes read from this memory
system.mem_ctrls.bytes_inst_read::cpu3.inst        86272                       # Number of instructions bytes read from this memory
system.mem_ctrls.bytes_inst_read::total        344064                       # Number of instructions bytes read from this memory
system.mem_ctrls.num_reads::cpu0.inst            1339                       # Number of read requests responded to by this memory
system.mem_ctrls.num_reads::cpu0.data           13185                       # Number of read requests responded to by this memory
system.mem_ctrls.num_reads::cpu1.inst            1338                       # Number of read requests responded to by this memory
system.mem_ctrls.num_reads::cpu1.data           13192                       # Number of read requests responded to by this memory
system.mem_ctrls.num_reads::cpu2.inst            1351                       # Number of read requests responded to by this memory
system.mem_ctrls.num_reads::cpu2.data           13173                       # Number of read requests responded to by this memory
system.mem_ctrls.num_reads::cpu3.inst            1348                       # Number of read requests responded to by this memory
system.mem_ctrls.num_reads::cpu3.data           13179                       # Number of read requests responded to by this memory
system.mem_ctrls.num_reads::total               58105                       # Number of read requests responded to by this memory
system.mem_ctrls.bw_read::cpu0.inst           3083857                       # Total read bandwidth from this memory (bytes/s)
system.mem_ctrls.bw_read::cpu0.data          30366435                       # Total read bandwidth from this memory (bytes/s)
system.mem_ctrls.bw_read::cpu1.inst           3081554                       # Total read bandwidth from this memory (bytes/s)
system.mem_ctrls.bw_read::cpu1.data          30382557                       # Total read bandwidth from this memory (bytes/s)
system.mem_ctrls.bw_read::cpu2.inst           3111494                       # Total read bandwidth from this memory (bytes/s)
system.mem_ctrls.bw_read::cpu2.data          30338798                       # Total read bandwidth from this memory (bytes/s)
system.mem_ctrls.bw_read::cpu3.inst           3104585                       # Total read bandwidth from this memory (bytes/s)
system.mem_ctrls.bw_read::cpu3.data          30352617                       # Total read bandwidth from this memory (bytes/s)
system.mem_ctrls.bw_read::total             133821897                       # Total read bandwidth from this memory (bytes/s)
system.mem_ctrls.bw_inst_read::cpu0.inst      3083857                       # Instruction read bandwidth from this memory (bytes/s)
system.mem_ctrls.bw_inst_read::cpu1.inst      3081554                       # Instruction read bandwidth from this memory (bytes/s)
system.mem_ctrls.bw_inst_read::cpu2.inst      3111494                       # Instruction read bandwidth from this memory (bytes/s)
system.mem_ctrls.bw_inst_read::cpu3.inst      3104585                       # Instruction read bandwidth from this memory (bytes/s)
system.mem_ctrls.bw_inst_read::total         12381491                       # Instruction read bandwidth from this memory (bytes/s)
system.mem_ctrls.bw_total::cpu0.inst          3083857                       # Total bandwidth to/from this memory (bytes/s)
system.mem_ctrls.bw_total::cpu0.data         30366435                       # Total bandwidth to/from this memory (bytes/s)
system.mem_ctrls.bw_total::cpu1.inst          3081554                       # Total bandwidth to/from this memory (bytes/s)
system.mem_ctrls.bw_total::cpu1.data         30382557                       # Total bandwidth to/from this memory (bytes/s)
system.mem_ctrls.bw_total::cpu2.inst          3111494                       # Total bandwidth to/from this memory (bytes/s)
system.mem_ctrls.bw_total::cpu2.data         30338798                       # Total bandwidth to/from this memory (bytes/s)
system.mem_ctrls.bw_total::cpu3.inst          3104585                       # Total bandwidth to/from this memory (bytes/s)
system.mem_ctrls.bw_total::cpu3.data         30352617                       # Total bandwidth to/from this memory (bytes/s)
system.mem_ctrls.bw_total::total            133821897                       # Total bandwidth to/from this memory (bytes/s)
system.pwrStateResidencyTicks::UNDEFINED  27788576274                       # Cumulative time (in ticks) in various power states
system.cpu0.branchPred.lookups               13734711                       # Number of BP lookups
system.cpu0.branchPred.condPredicted         13734711                       # Number of conditional branches predicted
system.cpu0.branchPred.condIncorrect           506991                       # Number of conditional branches incorrect
system.cpu0.branchPred.BTBLookups            11997074                       # Number of BTB lookups
system.cpu0.branchPred.BTBHits                      0                       # Number of BTB hits
system.cpu0.branchPred.BTBCorrect                   0                       # Number of correct BTB predictions (this stat may not work properly.
system.cpu0.branchPred.BTBHitPct             0.000000                       # BTB Hit Percentage
system.cpu0.branchPred.usedRAS                 437135                       # Number of times the RAS was used to get a target.
system.cpu0.branchPred.RASInCorrect             38331                       # Number of incorrect RAS predictions.
system.cpu0.branchPred.indirectLookups       11997074                       # Number of indirect predictor lookups.
system.cpu0.branchPred.indirectHits           8668486                       # Number of indirect target hits.
system.cpu0.branchPred.indirectMisses         3328588                       # Number of indirect misses.
system.cpu0.branchPredindirectMispredicted       188431                       # Number of mispredicted indirect branches.
system.cpu_voltage_domain.voltage                   1                       # Voltage in Volts
system.cpu_clk_domain.clock                       333                       # Clock period in ticks
system.cpu0.dtb.walker.pwrStateResidencyTicks::UNDEFINED  27788576274                       # Cumulative time (in ticks) in various power states
system.cpu0.dtb.rdAccesses                   94110855                       # TLB accesses on read requests
system.cpu0.dtb.wrAccesses                   12567203                       # TLB accesses on write requests
system.cpu0.dtb.rdMisses                        25687                       # TLB misses on read requests
system.cpu0.dtb.wrMisses                          123                       # TLB misses on write requests
system.cpu0.apic_clk_domain.clock                5328                       # Clock period in ticks
system.cpu0.interrupts.pwrStateResidencyTicks::UNDEFINED  27788576274                       # Cumulative time (in ticks) in various power states
system.cpu0.itb.walker.pwrStateResidencyTicks::UNDEFINED  27788576274                       # Cumulative time (in ticks) in various power states
system.cpu0.itb.rdAccesses                          0                       # TLB accesses on read requests
system.cpu0.itb.wrAccesses                   22968916                       # TLB accesses on write requests
system.cpu0.itb.rdMisses                            0                       # TLB misses on read requests
system.cpu0.itb.wrMisses                          191                       # TLB misses on write requests
system.cpu0.workload.numSyscalls                11008                       # Number of system calls
system.cpu0.pwrStateResidencyTicks::ON    27788576274                       # Cumulative time (in ticks) in various power states
system.cpu0.numCycles                        83449179                       # number of cpu cycles simulated
system.cpu0.numWorkItemsStarted                     0                       # number of work items this cpu started
system.cpu0.numWorkItemsCompleted                   0                       # number of work items this cpu completed
system.cpu0.fetch.icacheStallCycles          23329389                       # Number of cycles fetch is stalled on an Icache miss
system.cpu0.fetch.Insts                     214361222                       # Number of instructions fetch has processed
system.cpu0.fetch.Branches                   13734711                       # Number of branches that fetch encountered
system.cpu0.fetch.predictedBranches           9105621                       # Number of branches that fetch has predicted taken
system.cpu0.fetch.Cycles                     59494141                       # Number of cycles fetch has run and was not squashing or blocked
system.cpu0.fetch.SquashCycles                1019198                       # Number of cycles fetch has spent squashing
system.cpu0.fetch.MiscStallCycles                   9                       # Number of cycles fetch has spent waiting on interrupts, or bad addresses, or out of MSHRs
system.cpu0.fetch.PendingQuiesceStallCycles            9                       # Number of stall cycles due to pending quiesce instructions
system.cpu0.fetch.IcacheWaitRetryStallCycles          114                       # Number of stall cycles due to full MSHR
system.cpu0.fetch.CacheLines                 22968916                       # Number of cache lines fetched
system.cpu0.fetch.IcacheSquashes               124539                       # Number of outstanding Icache misses that were squashed
system.cpu0.fetch.rateDist::samples          83333261                       # Number of instructions fetched each cycle (Total)
system.cpu0.fetch.rateDist::mean             3.905298                       # Number of instructions fetched each cycle (Total)
system.cpu0.fetch.rateDist::stdev            3.633489                       # Number of instructions fetched each cycle (Total)
system.cpu0.fetch.rateDist::underflows              0      0.00%      0.00% # Number of instructions fetched each cycle (Total)
system.cpu0.fetch.rateDist::0                35411178     42.49%     42.49% # Number of instructions fetched each cycle (Total)
system.cpu0.fetch.rateDist::1                 1363583      1.64%     44.13% # Number of instructions fetched each cycle (Total)
system.cpu0.fetch.rateDist::2                 1483740      1.78%     45.91% # Number of instructions fetched each cycle (Total)
system.cpu0.fetch.rateDist::3                 1011711      1.21%     47.12% # Number of instructions fetched each cycle (Total)
system.cpu0.fetch.rateDist::4                 1878348      2.25%     49.38% # Number of instructions fetched each cycle (Total)
system.cpu0.fetch.rateDist::5                 2308763      2.77%     52.15% # Number of instructions fetched each cycle (Total)
system.cpu0.fetch.rateDist::6                 7369904      8.84%     60.99% # Number of instructions fetched each cycle (Total)
system.cpu0.fetch.rateDist::7                 5249896      6.30%     67.29% # Number of instructions fetched each cycle (Total)
system.cpu0.fetch.rateDist::8                27256138     32.71%    100.00% # Number of instructions fetched each cycle (Total)
system.cpu0.fetch.rateDist::overflows               0      0.00%    100.00% # Number of instructions fetched each cycle (Total)
system.cpu0.fetch.rateDist::min_value               0                       # Number of instructions fetched each cycle (Total)
system.cpu0.fetch.rateDist::max_value               8                       # Number of instructions fetched each cycle (Total)
system.cpu0.fetch.rateDist::total            83333261                       # Number of instructions fetched each cycle (Total)
system.cpu0.fetch.branchRate                 0.164588                       # Number of branch fetches per cycle
system.cpu0.fetch.rate                       2.568764                       # Number of inst fetches per cycle
system.cpu0.decode.IdleCycles                10902853                       # Number of cycles decode is idle
system.cpu0.decode.BlockedCycles             29476311                       # Number of cycles decode is blocked
system.cpu0.decode.RunCycles                 34535678                       # Number of cycles decode is running
system.cpu0.decode.UnblockCycles              7908820                       # Number of cycles decode is unblocking
system.cpu0.decode.SquashCycles                509599                       # Number of cycles decode is squashing
system.cpu0.decode.DecodedInsts             319381281                       # Number of instructions handled by decode
system.cpu0.rename.SquashCycles                509599                       # Number of cycles rename is squashing
system.cpu0.rename.IdleCycles                15178912                       # Number of cycles rename is idle
system.cpu0.rename.BlockCycles                2470728                       # Number of cycles rename is blocking
system.cpu0.rename.serializeStallCycles        255407                       # count of cycles rename stalled for serializing inst
system.cpu0.rename.RunCycles                 38103677                       # Number of cycles rename is running
system.cpu0.rename.UnblockCycles             26814938                       # Number of cycles rename is unblocking
system.cpu0.rename.RenamedInsts             316732891                       # Number of instructions processed by rename
system.cpu0.rename.ROBFullEvents                 4457                       # Number of times rename has blocked due to ROB full
system.cpu0.rename.IQFullEvents                654274                       # Number of times rename has blocked due to IQ full
system.cpu0.rename.LQFullEvents              23289018                       # Number of times rename has blocked due to LQ full
system.cpu0.rename.SQFullEvents                 43960                       # Number of times rename has blocked due to SQ full
system.cpu0.rename.FullRegisterEvents               3                       # Number of times there has been no free registers
system.cpu0.rename.RenamedOperands          438251501                       # Number of destination operands rename has renamed
system.cpu0.rename.RenameLookups            743505401                       # Number of register rename lookups that rename has made
system.cpu0.rename.int_rename_lookups       502999595                       # Number of integer rename lookups
system.cpu0.rename.fp_rename_lookups         32695122                       # Number of floating rename lookups
system.cpu0.rename.CommittedMaps            410002202                       # Number of HB maps that are committed
system.cpu0.rename.UndoneMaps                28249195                       # Number of HB maps that are undone due to squashing
system.cpu0.rename.serializingInsts             26327                       # count of serializing insts renamed
system.cpu0.rename.tempSerializingInsts         26310                       # count of temporary serializing insts renamed
system.cpu0.rename.skidInsts                 48355848                       # count of insts added to the skid buffer
system.cpu0.memDep0.insertedLoads            95529929                       # Number of loads inserted to the mem dependence unit.
system.cpu0.memDep0.insertedStores           13132917                       # Number of stores inserted to the mem dependence unit.
system.cpu0.memDep0.conflictingLoads         12687529                       # Number of conflicting loads.
system.cpu0.memDep0.conflictingStores         4044679                       # Number of conflicting stores.
system.cpu0.iq.iqInstsAdded                 311978917                       # Number of instructions added to the IQ (excludes non-spec)
system.cpu0.iq.iqNonSpecInstsAdded              26578                       # Number of non-speculative instructions added to the IQ
system.cpu0.iq.iqInstsIssued                305533081                       # Number of instructions issued
system.cpu0.iq.iqSquashedInstsIssued           499061                       # Number of squashed instructions issued
system.cpu0.iq.iqSquashedInstsExamined       18132511                       # Number of squashed instructions iterated over during squash; mainly for profiling
system.cpu0.iq.iqSquashedOperandsExamined     24955880                       # Number of squashed operands that are examined and possibly removed from graph
system.cpu0.iq.iqSquashedNonSpecRemoved         15480                       # Number of squashed non-spec instructions that were removed
system.cpu0.iq.issued_per_cycle::samples     83333261                       # Number of insts issued each cycle
system.cpu0.iq.issued_per_cycle::mean        3.666400                       # Number of insts issued each cycle
system.cpu0.iq.issued_per_cycle::stdev       2.067766                       # Number of insts issued each cycle
system.cpu0.iq.issued_per_cycle::underflows            0      0.00%      0.00% # Number of insts issued each cycle
system.cpu0.iq.issued_per_cycle::0            7800200      9.36%      9.36% # Number of insts issued each cycle
system.cpu0.iq.issued_per_cycle::1            6695041      8.03%     17.39% # Number of insts issued each cycle
system.cpu0.iq.issued_per_cycle::2           10469630     12.56%     29.96% # Number of insts issued each cycle
system.cpu0.iq.issued_per_cycle::3           11208351     13.45%     43.41% # Number of insts issued each cycle
system.cpu0.iq.issued_per_cycle::4           16675844     20.01%     63.42% # Number of insts issued each cycle
system.cpu0.iq.issued_per_cycle::5           14300614     17.16%     80.58% # Number of insts issued each cycle
system.cpu0.iq.issued_per_cycle::6            9002321     10.80%     91.38% # Number of insts issued each cycle
system.cpu0.iq.issued_per_cycle::7            5396725      6.48%     97.86% # Number of insts issued each cycle
system.cpu0.iq.issued_per_cycle::8            1784535      2.14%    100.00% # Number of insts issued each cycle
system.cpu0.iq.issued_per_cycle::overflows            0      0.00%    100.00% # Number of insts issued each cycle
system.cpu0.iq.issued_per_cycle::min_value            0                       # Number of insts issued each cycle
system.cpu0.iq.issued_per_cycle::max_value            8                       # Number of insts issued each cycle
system.cpu0.iq.issued_per_cycle::total       83333261                       # Number of insts issued each cycle
system.cpu0.iq.fu_full::No_OpClass                  0      0.00%      0.00% # attempts to use FU when none available
system.cpu0.iq.fu_full::IntAlu                1193582     47.99%     47.99% # attempts to use FU when none available
system.cpu0.iq.fu_full::IntMult                     0      0.00%     47.99% # attempts to use FU when none available
system.cpu0.iq.fu_full::IntDiv                      0      0.00%     47.99% # attempts to use FU when none available
system.cpu0.iq.fu_full::FloatAdd               352897     14.19%     62.18% # attempts to use FU when none available
system.cpu0.iq.fu_full::FloatCmp                    0      0.00%     62.18% # attempts to use FU when none available
system.cpu0.iq.fu_full::FloatCvt                    0      0.00%     62.18% # attempts to use FU when none available
system.cpu0.iq.fu_full::FloatMult                   0      0.00%     62.18% # attempts to use FU when none available
system.cpu0.iq.fu_full::FloatMultAcc                0      0.00%     62.18% # attempts to use FU when none available
system.cpu0.iq.fu_full::FloatDiv                    0      0.00%     62.18% # attempts to use FU when none available
system.cpu0.iq.fu_full::FloatMisc                   0      0.00%     62.18% # attempts to use FU when none available
system.cpu0.iq.fu_full::FloatSqrt                   0      0.00%     62.18% # attempts to use FU when none available
system.cpu0.iq.fu_full::SimdAdd                     0      0.00%     62.18% # attempts to use FU when none available
system.cpu0.iq.fu_full::SimdAddAcc                  0      0.00%     62.18% # attempts to use FU when none available
system.cpu0.iq.fu_full::SimdAlu                     0      0.00%     62.18% # attempts to use FU when none available
system.cpu0.iq.fu_full::SimdCmp                     0      0.00%     62.18% # attempts to use FU when none available
system.cpu0.iq.fu_full::SimdCvt                     0      0.00%     62.18% # attempts to use FU when none available
system.cpu0.iq.fu_full::SimdMisc                    0      0.00%     62.18% # attempts to use FU when none available
system.cpu0.iq.fu_full::SimdMult                    0      0.00%     62.18% # attempts to use FU when none available
system.cpu0.iq.fu_full::SimdMultAcc                 0      0.00%     62.18% # attempts to use FU when none available
system.cpu0.iq.fu_full::SimdShift                   0      0.00%     62.18% # attempts to use FU when none available
system.cpu0.iq.fu_full::SimdShiftAcc                0      0.00%     62.18% # attempts to use FU when none available
system.cpu0.iq.fu_full::SimdSqrt                    0      0.00%     62.18% # attempts to use FU when none available
system.cpu0.iq.fu_full::SimdFloatAdd                0      0.00%     62.18% # attempts to use FU when none available
system.cpu0.iq.fu_full::SimdFloatAlu                0      0.00%     62.18% # attempts to use FU when none available
system.cpu0.iq.fu_full::SimdFloatCmp                0      0.00%     62.18% # attempts to use FU when none available
system.cpu0.iq.fu_full::SimdFloatCvt                0      0.00%     62.18% # attempts to use FU when none available
system.cpu0.iq.fu_full::SimdFloatDiv                0      0.00%     62.18% # attempts to use FU when none available
system.cpu0.iq.fu_full::SimdFloatMisc               0      0.00%     62.18% # attempts to use FU when none available
system.cpu0.iq.fu_full::SimdFloatMult               0      0.00%     62.18% # attempts to use FU when none available
system.cpu0.iq.fu_full::SimdFloatMultAcc            0      0.00%     62.18% # attempts to use FU when none available
system.cpu0.iq.fu_full::SimdFloatSqrt               0      0.00%     62.18% # attempts to use FU when none available
system.cpu0.iq.fu_full::MemRead                886929     35.66%     97.83% # attempts to use FU when none available
system.cpu0.iq.fu_full::MemWrite                42687      1.72%     99.55% # attempts to use FU when none available
system.cpu0.iq.fu_full::FloatMemRead            10982      0.44%     99.99% # attempts to use FU when none available
system.cpu0.iq.fu_full::FloatMemWrite             198      0.01%    100.00% # attempts to use FU when none available
system.cpu0.iq.fu_full::IprAccess                   0      0.00%    100.00% # attempts to use FU when none available
system.cpu0.iq.fu_full::InstPrefetch                0      0.00%    100.00% # attempts to use FU when none available
system.cpu0.iq.FU_type_0::No_OpClass           318593      0.10%      0.10% # Type of FU issued
system.cpu0.iq.FU_type_0::IntAlu            155934379     51.04%     51.14% # Type of FU issued
system.cpu0.iq.FU_type_0::IntMult             8343483      2.73%     53.87% # Type of FU issued
system.cpu0.iq.FU_type_0::IntDiv                78714      0.03%     53.90% # Type of FU issued
system.cpu0.iq.FU_type_0::FloatAdd           33626094     11.01%     64.90% # Type of FU issued
system.cpu0.iq.FU_type_0::FloatCmp                  0      0.00%     64.90% # Type of FU issued
system.cpu0.iq.FU_type_0::FloatCvt                 32      0.00%     64.90% # Type of FU issued
system.cpu0.iq.FU_type_0::FloatMult                 0      0.00%     64.90% # Type of FU issued
system.cpu0.iq.FU_type_0::FloatMultAcc              0      0.00%     64.90% # Type of FU issued
system.cpu0.iq.FU_type_0::FloatDiv                  0      0.00%     64.90% # Type of FU issued
system.cpu0.iq.FU_type_0::FloatMisc                 0      0.00%     64.90% # Type of FU issued
system.cpu0.iq.FU_type_0::FloatSqrt                 0      0.00%     64.90% # Type of FU issued
system.cpu0.iq.FU_type_0::SimdAdd                   0      0.00%     64.90% # Type of FU issued
system.cpu0.iq.FU_type_0::SimdAddAcc                0      0.00%     64.90% # Type of FU issued
system.cpu0.iq.FU_type_0::SimdAlu                   0      0.00%     64.90% # Type of FU issued
system.cpu0.iq.FU_type_0::SimdCmp                   0      0.00%     64.90% # Type of FU issued
system.cpu0.iq.FU_type_0::SimdCvt                   0      0.00%     64.90% # Type of FU issued
system.cpu0.iq.FU_type_0::SimdMisc                  0      0.00%     64.90% # Type of FU issued
system.cpu0.iq.FU_type_0::SimdMult                  0      0.00%     64.90% # Type of FU issued
system.cpu0.iq.FU_type_0::SimdMultAcc               0      0.00%     64.90% # Type of FU issued
system.cpu0.iq.FU_type_0::SimdShift                 0      0.00%     64.90% # Type of FU issued
system.cpu0.iq.FU_type_0::SimdShiftAcc              0      0.00%     64.90% # Type of FU issued
system.cpu0.iq.FU_type_0::SimdSqrt                  0      0.00%     64.90% # Type of FU issued
system.cpu0.iq.FU_type_0::SimdFloatAdd              0      0.00%     64.90% # Type of FU issued
system.cpu0.iq.FU_type_0::SimdFloatAlu              0      0.00%     64.90% # Type of FU issued
system.cpu0.iq.FU_type_0::SimdFloatCmp              0      0.00%     64.90% # Type of FU issued
system.cpu0.iq.FU_type_0::SimdFloatCvt              0      0.00%     64.90% # Type of FU issued
system.cpu0.iq.FU_type_0::SimdFloatDiv              0      0.00%     64.90% # Type of FU issued
system.cpu0.iq.FU_type_0::SimdFloatMisc             0      0.00%     64.90% # Type of FU issued
system.cpu0.iq.FU_type_0::SimdFloatMult             0      0.00%     64.90% # Type of FU issued
system.cpu0.iq.FU_type_0::SimdFloatMultAcc            0      0.00%     64.90% # Type of FU issued
system.cpu0.iq.FU_type_0::SimdFloatSqrt             0      0.00%     64.90% # Type of FU issued
system.cpu0.iq.FU_type_0::MemRead            82276880     26.93%     91.83% # Type of FU issued
system.cpu0.iq.FU_type_0::MemWrite            8568900      2.80%     94.64% # Type of FU issued
system.cpu0.iq.FU_type_0::FloatMemRead       12305007      4.03%     98.66% # Type of FU issued
system.cpu0.iq.FU_type_0::FloatMemWrite       4080999      1.34%    100.00% # Type of FU issued
system.cpu0.iq.FU_type_0::IprAccess                 0      0.00%    100.00% # Type of FU issued
system.cpu0.iq.FU_type_0::InstPrefetch              0      0.00%    100.00% # Type of FU issued
system.cpu0.iq.FU_type_0::total             305533081                       # Type of FU issued
system.cpu0.iq.rate                          3.661307                       # Inst issue rate
system.cpu0.iq.fu_busy_cnt                    2487275                       # FU busy when requested
system.cpu0.iq.fu_busy_rate                  0.008141                       # FU busy rate (busy events/executed inst)
system.cpu0.iq.int_inst_queue_reads         596432491                       # Number of integer instruction queue reads
system.cpu0.iq.int_inst_queue_writes        277898051                       # Number of integer instruction queue writes
system.cpu0.iq.int_inst_queue_wakeup_accesses    253549173                       # Number of integer instruction queue wakeup accesses
system.cpu0.iq.fp_inst_queue_reads          100953261                       # Number of floating instruction queue reads
system.cpu0.iq.fp_inst_queue_writes          52243012                       # Number of floating instruction queue writes
system.cpu0.iq.fp_inst_queue_wakeup_accesses     49946241                       # Number of floating instruction queue wakeup accesses
system.cpu0.iq.vec_inst_queue_reads                 0                       # Number of vector instruction queue reads
system.cpu0.iq.vec_inst_queue_writes                0                       # Number of vector instruction queue writes
system.cpu0.iq.vec_inst_queue_wakeup_accesses            0                       # Number of vector instruction queue wakeup accesses
system.cpu0.iq.int_alu_accesses             257116361                       # Number of integer alu accesses
system.cpu0.iq.fp_alu_accesses               50585402                       # Number of floating point alu accesses
system.cpu0.iq.vec_alu_accesses                     0                       # Number of vector alu accesses
system.cpu0.iew.lsq.thread0.forwLoads        22201603                       # Number of loads that had data forwarded from stores
system.cpu0.iew.lsq.thread0.invAddrLoads            0                       # Number of loads ignored due to an invalid address
system.cpu0.iew.lsq.thread0.squashedLoads      3894704                       # Number of loads squashed
system.cpu0.iew.lsq.thread0.ignoredResponses        23976                       # Number of memory responses ignored because the instruction is squashed
system.cpu0.iew.lsq.thread0.memOrderViolation         3098                       # Number of memory ordering violations
system.cpu0.iew.lsq.thread0.squashedStores      1127335                       # Number of stores squashed
system.cpu0.iew.lsq.thread0.invAddrSwpfs            0                       # Number of software prefetches ignored due to an invalid address
system.cpu0.iew.lsq.thread0.blockedLoads            0                       # Number of blocked loads due to partial load-store forwarding
system.cpu0.iew.lsq.thread0.rescheduledLoads        23870                       # Number of loads that were rescheduled
system.cpu0.iew.lsq.thread0.cacheBlocked          907                       # Number of times an access to memory failed due to the cache being blocked
system.cpu0.iew.iewIdleCycles                       0                       # Number of cycles IEW is idle
system.cpu0.iew.iewSquashCycles                509599                       # Number of cycles IEW is squashing
system.cpu0.iew.iewBlockCycles                2058605                       # Number of cycles IEW is blocking
system.cpu0.iew.iewUnblockCycles               170561                       # Number of cycles IEW is unblocking
system.cpu0.iew.iewDispatchedInsts          312005495                       # Number of instructions dispatched to IQ
system.cpu0.iew.iewDispSquashedInsts            45660                       # Number of squashed instructions skipped by dispatch
system.cpu0.iew.iewDispLoadInsts             95529929                       # Number of dispatched load instructions
system.cpu0.iew.iewDispStoreInsts            13132917                       # Number of dispatched store instructions
system.cpu0.iew.iewDispNonSpecInsts             26346                       # Number of dispatched non-speculative instructions
system.cpu0.iew.iewIQFullEvents                   800                       # Number of times the IQ has become full, causing a stall
system.cpu0.iew.iewLSQFullEvents               169381                       # Number of times the LSQ has become full, causing a stall
system.cpu0.iew.memOrderViolationEvents          3098                       # Number of memory order violations
system.cpu0.iew.predictedTakenIncorrect        236526                       # Number of branches that were predicted taken incorrectly
system.cpu0.iew.predictedNotTakenIncorrect       360212                       # Number of branches that were predicted not taken incorrectly
system.cpu0.iew.branchMispredicts              596738                       # Number of branch mispredicts detected at execute
system.cpu0.iew.iewExecutedInsts            304243043                       # Number of executed instructions
system.cpu0.iew.iewExecLoadInsts             94088092                       # Number of load instructions executed
system.cpu0.iew.iewExecSquashedInsts          1290031                       # Number of squashed instructions skipped in execute
system.cpu0.iew.exec_swp                            0                       # number of swp insts executed
system.cpu0.iew.exec_nop                            0                       # number of nop insts executed
system.cpu0.iew.exec_refs                   106645191                       # number of memory reference insts executed
system.cpu0.iew.exec_branches                11850782                       # Number of branches executed
system.cpu0.iew.exec_stores                  12557099                       # Number of stores executed
system.cpu0.iew.exec_rate                    3.645848                       # Inst execution rate
system.cpu0.iew.wb_sent                     303808926                       # cumulative count of insts sent to commit
system.cpu0.iew.wb_count                    303495414                       # cumulative count of insts written-back
system.cpu0.iew.wb_producers                241131680                       # num instructions producing a value
system.cpu0.iew.wb_consumers                317979820                       # num instructions consuming a value
system.cpu0.iew.wb_rate                      3.636889                       # insts written-back per cycle
system.cpu0.iew.wb_fanout                    0.758324                       # average fanout of values written-back
system.cpu0.commit.commitSquashedInsts       18132556                       # The number of squashed insts skipped by commit
system.cpu0.commit.commitNonSpecStalls          11098                       # The number of times commit has been forced to stall to communicate backwards
system.cpu0.commit.branchMispredicts           506991                       # The number of times a branch was mispredicted
system.cpu0.commit.committed_per_cycle::samples     80857765                       # Number of insts commited each cycle
system.cpu0.commit.committed_per_cycle::mean     3.634443                       # Number of insts commited each cycle
system.cpu0.commit.committed_per_cycle::stdev     3.408188                       # Number of insts commited each cycle
system.cpu0.commit.committed_per_cycle::underflows            0      0.00%      0.00% # Number of insts commited each cycle
system.cpu0.commit.committed_per_cycle::0     22783444     28.18%     28.18% # Number of insts commited each cycle
system.cpu0.commit.committed_per_cycle::1     13039150     16.13%     44.30% # Number of insts commited each cycle
system.cpu0.commit.committed_per_cycle::2      4351545      5.38%     49.68% # Number of insts commited each cycle
system.cpu0.commit.committed_per_cycle::3      5137837      6.35%     56.04% # Number of insts commited each cycle
system.cpu0.commit.committed_per_cycle::4      4831740      5.98%     62.01% # Number of insts commited each cycle
system.cpu0.commit.committed_per_cycle::5      1826093      2.26%     64.27% # Number of insts commited each cycle
system.cpu0.commit.committed_per_cycle::6       735440      0.91%     65.18% # Number of insts commited each cycle
system.cpu0.commit.committed_per_cycle::7      1373019      1.70%     66.88% # Number of insts commited each cycle
system.cpu0.commit.committed_per_cycle::8     26779497     33.12%    100.00% # Number of insts commited each cycle
system.cpu0.commit.committed_per_cycle::overflows            0      0.00%    100.00% # Number of insts commited each cycle
system.cpu0.commit.committed_per_cycle::min_value            0                       # Number of insts commited each cycle
system.cpu0.commit.committed_per_cycle::max_value            8                       # Number of insts commited each cycle
system.cpu0.commit.committed_per_cycle::total     80857765                       # Number of insts commited each cycle
system.cpu0.commit.committedInsts           196461539                       # Number of instructions committed
system.cpu0.commit.committedOps             293872925                       # Number of ops (including micro ops) committed
system.cpu0.commit.swp_count                        0                       # Number of s/w prefetches committed
system.cpu0.commit.refs                     103640784                       # Number of memory references committed
system.cpu0.commit.loads                     91635204                       # Number of loads committed
system.cpu0.commit.membars                         48                       # Number of memory barriers committed
system.cpu0.commit.branches                  11133517                       # Number of branches committed
system.cpu0.commit.vec_insts                        0                       # Number of committed Vector instructions.
system.cpu0.commit.fp_insts                  49728520                       # Number of committed floating point instructions.
system.cpu0.commit.int_insts                260510313                       # Number of committed integer instructions.
system.cpu0.commit.function_calls              351875                       # Number of function calls committed.
system.cpu0.commit.op_class_0::No_OpClass       167131      0.06%      0.06% # Class of committed instruction
system.cpu0.commit.op_class_0::IntAlu       148537288     50.54%     50.60% # Class of committed instruction
system.cpu0.commit.op_class_0::IntMult        8231651      2.80%     53.40% # Class of committed instruction
system.cpu0.commit.op_class_0::IntDiv           78344      0.03%     53.43% # Class of committed instruction
system.cpu0.commit.op_class_0::FloatAdd      33217695     11.30%     64.73% # Class of committed instruction
system.cpu0.commit.op_class_0::FloatCmp             0      0.00%     64.73% # Class of committed instruction
system.cpu0.commit.op_class_0::FloatCvt            32      0.00%     64.73% # Class of committed instruction
system.cpu0.commit.op_class_0::FloatMult            0      0.00%     64.73% # Class of committed instruction
system.cpu0.commit.op_class_0::FloatMultAcc            0      0.00%     64.73% # Class of committed instruction
system.cpu0.commit.op_class_0::FloatDiv             0      0.00%     64.73% # Class of committed instruction
system.cpu0.commit.op_class_0::FloatMisc            0      0.00%     64.73% # Class of committed instruction
system.cpu0.commit.op_class_0::FloatSqrt            0      0.00%     64.73% # Class of committed instruction
system.cpu0.commit.op_class_0::SimdAdd              0      0.00%     64.73% # Class of committed instruction
system.cpu0.commit.op_class_0::SimdAddAcc            0      0.00%     64.73% # Class of committed instruction
system.cpu0.commit.op_class_0::SimdAlu              0      0.00%     64.73% # Class of committed instruction
system.cpu0.commit.op_class_0::SimdCmp              0      0.00%     64.73% # Class of committed instruction
system.cpu0.commit.op_class_0::SimdCvt              0      0.00%     64.73% # Class of committed instruction
system.cpu0.commit.op_class_0::SimdMisc             0      0.00%     64.73% # Class of committed instruction
system.cpu0.commit.op_class_0::SimdMult             0      0.00%     64.73% # Class of committed instruction
system.cpu0.commit.op_class_0::SimdMultAcc            0      0.00%     64.73% # Class of committed instruction
system.cpu0.commit.op_class_0::SimdShift            0      0.00%     64.73% # Class of committed instruction
system.cpu0.commit.op_class_0::SimdShiftAcc            0      0.00%     64.73% # Class of committed instruction
system.cpu0.commit.op_class_0::SimdSqrt             0      0.00%     64.73% # Class of committed instruction
system.cpu0.commit.op_class_0::SimdFloatAdd            0      0.00%     64.73% # Class of committed instruction
system.cpu0.commit.op_class_0::SimdFloatAlu            0      0.00%     64.73% # Class of committed instruction
system.cpu0.commit.op_class_0::SimdFloatCmp            0      0.00%     64.73% # Class of committed instruction
system.cpu0.commit.op_class_0::SimdFloatCvt            0      0.00%     64.73% # Class of committed instruction
system.cpu0.commit.op_class_0::SimdFloatDiv            0      0.00%     64.73% # Class of committed instruction
system.cpu0.commit.op_class_0::SimdFloatMisc            0      0.00%     64.73% # Class of committed instruction
system.cpu0.commit.op_class_0::SimdFloatMult            0      0.00%     64.73% # Class of committed instruction
system.cpu0.commit.op_class_0::SimdFloatMultAcc            0      0.00%     64.73% # Class of committed instruction
system.cpu0.commit.op_class_0::SimdFloatSqrt            0      0.00%     64.73% # Class of committed instruction
system.cpu0.commit.op_class_0::MemRead       79411807     27.02%     91.76% # Class of committed instruction
system.cpu0.commit.op_class_0::MemWrite       7927128      2.70%     94.45% # Class of committed instruction
system.cpu0.commit.op_class_0::FloatMemRead     12223397      4.16%     98.61% # Class of committed instruction
system.cpu0.commit.op_class_0::FloatMemWrite      4078452      1.39%    100.00% # Class of committed instruction
system.cpu0.commit.op_class_0::IprAccess            0      0.00%    100.00% # Class of committed instruction
system.cpu0.commit.op_class_0::InstPrefetch            0      0.00%    100.00% # Class of committed instruction
system.cpu0.commit.op_class_0::total        293872925                       # Class of committed instruction
system.cpu0.commit.bw_lim_events             26779497                       # number cycles where commit BW limit reached
system.cpu0.rob.rob_reads                   366083749                       # The number of ROB reads
system.cpu0.rob.rob_writes                  626496102                       # The number of ROB writes
system.cpu0.timesIdled                            773                       # Number of times that the entire CPU went into an idle state and unscheduled itself
system.cpu0.idleCycles                         115918                       # Total number of cycles that the CPU has spent unscheduled due to idling
system.cpu0.committedInsts                  196461539                       # Number of Instructions Simulated
system.cpu0.committedOps                    293872925                       # Number of Ops (including micro ops) Simulated
system.cpu0.cpi                              0.424761                       # CPI: Cycles Per Instruction
system.cpu0.cpi_total                        0.424761                       # CPI: Total CPI of All Threads
system.cpu0.ipc                              2.354266                       # IPC: Instructions Per Cycle
system.cpu0.ipc_total                        2.354266                       # IPC: Total IPC of All Threads
system.cpu0.int_regfile_reads               481800913                       # number of integer regfile reads
system.cpu0.int_regfile_writes              241934953                       # number of integer regfile writes
system.cpu0.fp_regfile_reads                 31138363                       # number of floating regfile reads
system.cpu0.fp_regfile_writes                45679773                       # number of floating regfile writes
system.cpu0.cc_regfile_reads                 64827175                       # number of cc regfile reads
system.cpu0.cc_regfile_writes               134130086                       # number of cc regfile writes
system.cpu0.misc_regfile_reads              131039203                       # number of misc regfile reads
system.cpu0.misc_regfile_writes                    18                       # number of misc regfile writes
system.cpu0.dcache.tags.pwrStateResidencyTicks::UNDEFINED  27788576274                       # Cumulative time (in ticks) in various power states
system.cpu0.dcache.tags.replacements            68357                       # number of replacements
system.cpu0.dcache.tags.tagsinuse          511.565309                       # Cycle average of tags in use
system.cpu0.dcache.tags.total_refs           83766832                       # Total number of references to valid blocks.
system.cpu0.dcache.tags.sampled_refs            68869                       # Sample count of references to valid blocks.
system.cpu0.dcache.tags.avg_refs          1216.321306                       # Average number of references to valid blocks.
system.cpu0.dcache.tags.warmup_cycle           175158                       # Cycle when the warmup percentage was hit.
system.cpu0.dcache.tags.occ_blocks::cpu0.data   511.565309                       # Average occupied blocks per requestor
system.cpu0.dcache.tags.occ_percent::cpu0.data     0.999151                       # Average percentage of cache occupancy
system.cpu0.dcache.tags.occ_percent::total     0.999151                       # Average percentage of cache occupancy
system.cpu0.dcache.tags.occ_task_id_blocks::1024          512                       # Occupied blocks per task id
system.cpu0.dcache.tags.age_task_id_blocks_1024::0           22                       # Occupied blocks per task id
system.cpu0.dcache.tags.age_task_id_blocks_1024::1          200                       # Occupied blocks per task id
system.cpu0.dcache.tags.age_task_id_blocks_1024::2          213                       # Occupied blocks per task id
system.cpu0.dcache.tags.age_task_id_blocks_1024::3           26                       # Occupied blocks per task id
system.cpu0.dcache.tags.age_task_id_blocks_1024::4           51                       # Occupied blocks per task id
system.cpu0.dcache.tags.occ_task_id_percent::1024            1                       # Percentage of cache occupancy per task id
system.cpu0.dcache.tags.tag_accesses        671070221                       # Number of tag accesses
system.cpu0.dcache.tags.data_accesses       671070221                       # Number of data accesses
system.cpu0.dcache.pwrStateResidencyTicks::UNDEFINED  27788576274                       # Cumulative time (in ticks) in various power states
system.cpu0.dcache.ReadReq_hits::cpu0.data     71752448                       # number of ReadReq hits
system.cpu0.dcache.ReadReq_hits::total       71752448                       # number of ReadReq hits
system.cpu0.dcache.WriteReq_hits::cpu0.data     12014377                       # number of WriteReq hits
system.cpu0.dcache.WriteReq_hits::total      12014377                       # number of WriteReq hits
system.cpu0.dcache.demand_hits::cpu0.data     83766825                       # number of demand (read+write) hits
system.cpu0.dcache.demand_hits::total        83766825                       # number of demand (read+write) hits
system.cpu0.dcache.overall_hits::cpu0.data     83766825                       # number of overall hits
system.cpu0.dcache.overall_hits::total       83766825                       # number of overall hits
system.cpu0.dcache.ReadReq_misses::cpu0.data       107048                       # number of ReadReq misses
system.cpu0.dcache.ReadReq_misses::total       107048                       # number of ReadReq misses
system.cpu0.dcache.WriteReq_misses::cpu0.data         1296                       # number of WriteReq misses
system.cpu0.dcache.WriteReq_misses::total         1296                       # number of WriteReq misses
system.cpu0.dcache.demand_misses::cpu0.data       108344                       # number of demand (read+write) misses
system.cpu0.dcache.demand_misses::total        108344                       # number of demand (read+write) misses
system.cpu0.dcache.overall_misses::cpu0.data       108344                       # number of overall misses
system.cpu0.dcache.overall_misses::total       108344                       # number of overall misses
system.cpu0.dcache.ReadReq_miss_latency::cpu0.data   2598163902                       # number of ReadReq miss cycles
system.cpu0.dcache.ReadReq_miss_latency::total   2598163902                       # number of ReadReq miss cycles
system.cpu0.dcache.WriteReq_miss_latency::cpu0.data     89789787                       # number of WriteReq miss cycles
system.cpu0.dcache.WriteReq_miss_latency::total     89789787                       # number of WriteReq miss cycles
system.cpu0.dcache.demand_miss_latency::cpu0.data   2687953689                       # number of demand (read+write) miss cycles
system.cpu0.dcache.demand_miss_latency::total   2687953689                       # number of demand (read+write) miss cycles
system.cpu0.dcache.overall_miss_latency::cpu0.data   2687953689                       # number of overall miss cycles
system.cpu0.dcache.overall_miss_latency::total   2687953689                       # number of overall miss cycles
system.cpu0.dcache.ReadReq_accesses::cpu0.data     71859496                       # number of ReadReq accesses(hits+misses)
system.cpu0.dcache.ReadReq_accesses::total     71859496                       # number of ReadReq accesses(hits+misses)
system.cpu0.dcache.WriteReq_accesses::cpu0.data     12015673                       # number of WriteReq accesses(hits+misses)
system.cpu0.dcache.WriteReq_accesses::total     12015673                       # number of WriteReq accesses(hits+misses)
system.cpu0.dcache.demand_accesses::cpu0.data     83875169                       # number of demand (read+write) accesses
system.cpu0.dcache.demand_accesses::total     83875169                       # number of demand (read+write) accesses
system.cpu0.dcache.overall_accesses::cpu0.data     83875169                       # number of overall (read+write) accesses
system.cpu0.dcache.overall_accesses::total     83875169                       # number of overall (read+write) accesses
system.cpu0.dcache.ReadReq_miss_rate::cpu0.data     0.001490                       # miss rate for ReadReq accesses
system.cpu0.dcache.ReadReq_miss_rate::total     0.001490                       # miss rate for ReadReq accesses
system.cpu0.dcache.WriteReq_miss_rate::cpu0.data     0.000108                       # miss rate for WriteReq accesses
system.cpu0.dcache.WriteReq_miss_rate::total     0.000108                       # miss rate for WriteReq accesses
system.cpu0.dcache.demand_miss_rate::cpu0.data     0.001292                       # miss rate for demand accesses
system.cpu0.dcache.demand_miss_rate::total     0.001292                       # miss rate for demand accesses
system.cpu0.dcache.overall_miss_rate::cpu0.data     0.001292                       # miss rate for overall accesses
system.cpu0.dcache.overall_miss_rate::total     0.001292                       # miss rate for overall accesses
system.cpu0.dcache.ReadReq_avg_miss_latency::cpu0.data 24271.017693                       # average ReadReq miss latency
system.cpu0.dcache.ReadReq_avg_miss_latency::total 24271.017693                       # average ReadReq miss latency
system.cpu0.dcache.WriteReq_avg_miss_latency::cpu0.data 69282.243056                       # average WriteReq miss latency
system.cpu0.dcache.WriteReq_avg_miss_latency::total 69282.243056                       # average WriteReq miss latency
system.cpu0.dcache.demand_avg_miss_latency::cpu0.data 24809.437431                       # average overall miss latency
system.cpu0.dcache.demand_avg_miss_latency::total 24809.437431                       # average overall miss latency
system.cpu0.dcache.overall_avg_miss_latency::cpu0.data 24809.437431                       # average overall miss latency
system.cpu0.dcache.overall_avg_miss_latency::total 24809.437431                       # average overall miss latency
system.cpu0.dcache.blocked_cycles::no_mshrs        23501                       # number of cycles access was blocked
system.cpu0.dcache.blocked_cycles::no_targets          505                       # number of cycles access was blocked
system.cpu0.dcache.blocked::no_mshrs              377                       # number of cycles access was blocked
system.cpu0.dcache.blocked::no_targets              7                       # number of cycles access was blocked
system.cpu0.dcache.avg_blocked_cycles::no_mshrs    62.336870                       # average number of cycles each access was blocked
system.cpu0.dcache.avg_blocked_cycles::no_targets    72.142857                       # average number of cycles each access was blocked
system.cpu0.dcache.writebacks::writebacks         1841                       # number of writebacks
system.cpu0.dcache.writebacks::total             1841                       # number of writebacks
system.cpu0.dcache.ReadReq_mshr_hits::cpu0.data        39463                       # number of ReadReq MSHR hits
system.cpu0.dcache.ReadReq_mshr_hits::total        39463                       # number of ReadReq MSHR hits
system.cpu0.dcache.WriteReq_mshr_hits::cpu0.data            6                       # number of WriteReq MSHR hits
system.cpu0.dcache.WriteReq_mshr_hits::total            6                       # number of WriteReq MSHR hits
system.cpu0.dcache.demand_mshr_hits::cpu0.data        39469                       # number of demand (read+write) MSHR hits
system.cpu0.dcache.demand_mshr_hits::total        39469                       # number of demand (read+write) MSHR hits
system.cpu0.dcache.overall_mshr_hits::cpu0.data        39469                       # number of overall MSHR hits
system.cpu0.dcache.overall_mshr_hits::total        39469                       # number of overall MSHR hits
system.cpu0.dcache.ReadReq_mshr_misses::cpu0.data        67585                       # number of ReadReq MSHR misses
system.cpu0.dcache.ReadReq_mshr_misses::total        67585                       # number of ReadReq MSHR misses
system.cpu0.dcache.WriteReq_mshr_misses::cpu0.data         1290                       # number of WriteReq MSHR misses
system.cpu0.dcache.WriteReq_mshr_misses::total         1290                       # number of WriteReq MSHR misses
system.cpu0.dcache.demand_mshr_misses::cpu0.data        68875                       # number of demand (read+write) MSHR misses
system.cpu0.dcache.demand_mshr_misses::total        68875                       # number of demand (read+write) MSHR misses
system.cpu0.dcache.overall_mshr_misses::cpu0.data        68875                       # number of overall MSHR misses
system.cpu0.dcache.overall_mshr_misses::total        68875                       # number of overall MSHR misses
system.cpu0.dcache.ReadReq_mshr_miss_latency::cpu0.data   1295137899                       # number of ReadReq MSHR miss cycles
system.cpu0.dcache.ReadReq_mshr_miss_latency::total   1295137899                       # number of ReadReq MSHR miss cycles
system.cpu0.dcache.WriteReq_mshr_miss_latency::cpu0.data     88705872                       # number of WriteReq MSHR miss cycles
system.cpu0.dcache.WriteReq_mshr_miss_latency::total     88705872                       # number of WriteReq MSHR miss cycles
system.cpu0.dcache.demand_mshr_miss_latency::cpu0.data   1383843771                       # number of demand (read+write) MSHR miss cycles
system.cpu0.dcache.demand_mshr_miss_latency::total   1383843771                       # number of demand (read+write) MSHR miss cycles
system.cpu0.dcache.overall_mshr_miss_latency::cpu0.data   1383843771                       # number of overall MSHR miss cycles
system.cpu0.dcache.overall_mshr_miss_latency::total   1383843771                       # number of overall MSHR miss cycles
system.cpu0.dcache.ReadReq_mshr_miss_rate::cpu0.data     0.000941                       # mshr miss rate for ReadReq accesses
system.cpu0.dcache.ReadReq_mshr_miss_rate::total     0.000941                       # mshr miss rate for ReadReq accesses
system.cpu0.dcache.WriteReq_mshr_miss_rate::cpu0.data     0.000107                       # mshr miss rate for WriteReq accesses
system.cpu0.dcache.WriteReq_mshr_miss_rate::total     0.000107                       # mshr miss rate for WriteReq accesses
system.cpu0.dcache.demand_mshr_miss_rate::cpu0.data     0.000821                       # mshr miss rate for demand accesses
system.cpu0.dcache.demand_mshr_miss_rate::total     0.000821                       # mshr miss rate for demand accesses
system.cpu0.dcache.overall_mshr_miss_rate::cpu0.data     0.000821                       # mshr miss rate for overall accesses
system.cpu0.dcache.overall_mshr_miss_rate::total     0.000821                       # mshr miss rate for overall accesses
system.cpu0.dcache.ReadReq_avg_mshr_miss_latency::cpu0.data 19163.096826                       # average ReadReq mshr miss latency
system.cpu0.dcache.ReadReq_avg_mshr_miss_latency::total 19163.096826                       # average ReadReq mshr miss latency
system.cpu0.dcache.WriteReq_avg_mshr_miss_latency::cpu0.data 68764.241860                       # average WriteReq mshr miss latency
system.cpu0.dcache.WriteReq_avg_mshr_miss_latency::total 68764.241860                       # average WriteReq mshr miss latency
system.cpu0.dcache.demand_avg_mshr_miss_latency::cpu0.data 20092.105568                       # average overall mshr miss latency
system.cpu0.dcache.demand_avg_mshr_miss_latency::total 20092.105568                       # average overall mshr miss latency
system.cpu0.dcache.overall_avg_mshr_miss_latency::cpu0.data 20092.105568                       # average overall mshr miss latency
system.cpu0.dcache.overall_avg_mshr_miss_latency::total 20092.105568                       # average overall mshr miss latency
system.cpu0.dtb_walker_cache.tags.pwrStateResidencyTicks::UNDEFINED  27788576274                       # Cumulative time (in ticks) in various power states
system.cpu0.dtb_walker_cache.tags.replacements            0                       # number of replacements
system.cpu0.dtb_walker_cache.tags.tagsinuse            0                       # Cycle average of tags in use
system.cpu0.dtb_walker_cache.tags.total_refs            0                       # Total number of references to valid blocks.
system.cpu0.dtb_walker_cache.tags.sampled_refs            0                       # Sample count of references to valid blocks.
system.cpu0.dtb_walker_cache.tags.avg_refs          nan                       # Average number of references to valid blocks.
system.cpu0.dtb_walker_cache.tags.warmup_cycle            0                       # Cycle when the warmup percentage was hit.
system.cpu0.dtb_walker_cache.tags.tag_accesses            0                       # Number of tag accesses
system.cpu0.dtb_walker_cache.tags.data_accesses            0                       # Number of data accesses
system.cpu0.dtb_walker_cache.pwrStateResidencyTicks::UNDEFINED  27788576274                       # Cumulative time (in ticks) in various power states
system.cpu0.dtb_walker_cache.blocked_cycles::no_mshrs            0                       # number of cycles access was blocked
system.cpu0.dtb_walker_cache.blocked_cycles::no_targets            0                       # number of cycles access was blocked
system.cpu0.dtb_walker_cache.blocked::no_mshrs            0                       # number of cycles access was blocked
system.cpu0.dtb_walker_cache.blocked::no_targets            0                       # number of cycles access was blocked
system.cpu0.dtb_walker_cache.avg_blocked_cycles::no_mshrs          nan                       # average number of cycles each access was blocked
system.cpu0.dtb_walker_cache.avg_blocked_cycles::no_targets          nan                       # average number of cycles each access was blocked
system.cpu0.icache.tags.pwrStateResidencyTicks::UNDEFINED  27788576274                       # Cumulative time (in ticks) in various power states
system.cpu0.icache.tags.replacements              869                       # number of replacements
system.cpu0.icache.tags.tagsinuse          511.676046                       # Cycle average of tags in use
system.cpu0.icache.tags.total_refs           22967125                       # Total number of references to valid blocks.
system.cpu0.icache.tags.sampled_refs             1381                       # Sample count of references to valid blocks.
system.cpu0.icache.tags.avg_refs         16630.792904                       # Average number of references to valid blocks.
system.cpu0.icache.tags.warmup_cycle            81252                       # Cycle when the warmup percentage was hit.
system.cpu0.icache.tags.occ_blocks::cpu0.inst   511.676046                       # Average occupied blocks per requestor
system.cpu0.icache.tags.occ_percent::cpu0.inst     0.999367                       # Average percentage of cache occupancy
system.cpu0.icache.tags.occ_percent::total     0.999367                       # Average percentage of cache occupancy
system.cpu0.icache.tags.occ_task_id_blocks::1024          512                       # Occupied blocks per task id
system.cpu0.icache.tags.age_task_id_blocks_1024::4          512                       # Occupied blocks per task id
system.cpu0.icache.tags.occ_task_id_percent::1024            1                       # Percentage of cache occupancy per task id
system.cpu0.icache.tags.tag_accesses        183752711                       # Number of tag accesses
system.cpu0.icache.tags.data_accesses       183752711                       # Number of data accesses
system.cpu0.icache.pwrStateResidencyTicks::UNDEFINED  27788576274                       # Cumulative time (in ticks) in various power states
system.cpu0.icache.ReadReq_hits::cpu0.inst     22967125                       # number of ReadReq hits
system.cpu0.icache.ReadReq_hits::total       22967125                       # number of ReadReq hits
system.cpu0.icache.demand_hits::cpu0.inst     22967125                       # number of demand (read+write) hits
system.cpu0.icache.demand_hits::total        22967125                       # number of demand (read+write) hits
system.cpu0.icache.overall_hits::cpu0.inst     22967125                       # number of overall hits
system.cpu0.icache.overall_hits::total       22967125                       # number of overall hits
system.cpu0.icache.ReadReq_misses::cpu0.inst         1791                       # number of ReadReq misses
system.cpu0.icache.ReadReq_misses::total         1791                       # number of ReadReq misses
system.cpu0.icache.demand_misses::cpu0.inst         1791                       # number of demand (read+write) misses
system.cpu0.icache.demand_misses::total          1791                       # number of demand (read+write) misses
system.cpu0.icache.overall_misses::cpu0.inst         1791                       # number of overall misses
system.cpu0.icache.overall_misses::total         1791                       # number of overall misses
system.cpu0.icache.ReadReq_miss_latency::cpu0.inst    109035521                       # number of ReadReq miss cycles
system.cpu0.icache.ReadReq_miss_latency::total    109035521                       # number of ReadReq miss cycles
system.cpu0.icache.demand_miss_latency::cpu0.inst    109035521                       # number of demand (read+write) miss cycles
system.cpu0.icache.demand_miss_latency::total    109035521                       # number of demand (read+write) miss cycles
system.cpu0.icache.overall_miss_latency::cpu0.inst    109035521                       # number of overall miss cycles
system.cpu0.icache.overall_miss_latency::total    109035521                       # number of overall miss cycles
system.cpu0.icache.ReadReq_accesses::cpu0.inst     22968916                       # number of ReadReq accesses(hits+misses)
system.cpu0.icache.ReadReq_accesses::total     22968916                       # number of ReadReq accesses(hits+misses)
system.cpu0.icache.demand_accesses::cpu0.inst     22968916                       # number of demand (read+write) accesses
system.cpu0.icache.demand_accesses::total     22968916                       # number of demand (read+write) accesses
system.cpu0.icache.overall_accesses::cpu0.inst     22968916                       # number of overall (read+write) accesses
system.cpu0.icache.overall_accesses::total     22968916                       # number of overall (read+write) accesses
system.cpu0.icache.ReadReq_miss_rate::cpu0.inst     0.000078                       # miss rate for ReadReq accesses
system.cpu0.icache.ReadReq_miss_rate::total     0.000078                       # miss rate for ReadReq accesses
system.cpu0.icache.demand_miss_rate::cpu0.inst     0.000078                       # miss rate for demand accesses
system.cpu0.icache.demand_miss_rate::total     0.000078                       # miss rate for demand accesses
system.cpu0.icache.overall_miss_rate::cpu0.inst     0.000078                       # miss rate for overall accesses
system.cpu0.icache.overall_miss_rate::total     0.000078                       # miss rate for overall accesses
system.cpu0.icache.ReadReq_avg_miss_latency::cpu0.inst 60879.687884                       # average ReadReq miss latency
system.cpu0.icache.ReadReq_avg_miss_latency::total 60879.687884                       # average ReadReq miss latency
system.cpu0.icache.demand_avg_miss_latency::cpu0.inst 60879.687884                       # average overall miss latency
system.cpu0.icache.demand_avg_miss_latency::total 60879.687884                       # average overall miss latency
system.cpu0.icache.overall_avg_miss_latency::cpu0.inst 60879.687884                       # average overall miss latency
system.cpu0.icache.overall_avg_miss_latency::total 60879.687884                       # average overall miss latency
system.cpu0.icache.blocked_cycles::no_mshrs         1969                       # number of cycles access was blocked
system.cpu0.icache.blocked_cycles::no_targets            0                       # number of cycles access was blocked
system.cpu0.icache.blocked::no_mshrs               15                       # number of cycles access was blocked
system.cpu0.icache.blocked::no_targets              0                       # number of cycles access was blocked
system.cpu0.icache.avg_blocked_cycles::no_mshrs   131.266667                       # average number of cycles each access was blocked
system.cpu0.icache.avg_blocked_cycles::no_targets          nan                       # average number of cycles each access was blocked
system.cpu0.icache.writebacks::writebacks          869                       # number of writebacks
system.cpu0.icache.writebacks::total              869                       # number of writebacks
system.cpu0.icache.ReadReq_mshr_hits::cpu0.inst          408                       # number of ReadReq MSHR hits
system.cpu0.icache.ReadReq_mshr_hits::total          408                       # number of ReadReq MSHR hits
system.cpu0.icache.demand_mshr_hits::cpu0.inst          408                       # number of demand (read+write) MSHR hits
system.cpu0.icache.demand_mshr_hits::total          408                       # number of demand (read+write) MSHR hits
system.cpu0.icache.overall_mshr_hits::cpu0.inst          408                       # number of overall MSHR hits
system.cpu0.icache.overall_mshr_hits::total          408                       # number of overall MSHR hits
system.cpu0.icache.ReadReq_mshr_misses::cpu0.inst         1383                       # number of ReadReq MSHR misses
system.cpu0.icache.ReadReq_mshr_misses::total         1383                       # number of ReadReq MSHR misses
system.cpu0.icache.demand_mshr_misses::cpu0.inst         1383                       # number of demand (read+write) MSHR misses
system.cpu0.icache.demand_mshr_misses::total         1383                       # number of demand (read+write) MSHR misses
system.cpu0.icache.overall_mshr_misses::cpu0.inst         1383                       # number of overall MSHR misses
system.cpu0.icache.overall_mshr_misses::total         1383                       # number of overall MSHR misses
system.cpu0.icache.ReadReq_mshr_miss_latency::cpu0.inst     89544366                       # number of ReadReq MSHR miss cycles
system.cpu0.icache.ReadReq_mshr_miss_latency::total     89544366                       # number of ReadReq MSHR miss cycles
system.cpu0.icache.demand_mshr_miss_latency::cpu0.inst     89544366                       # number of demand (read+write) MSHR miss cycles
system.cpu0.icache.demand_mshr_miss_latency::total     89544366                       # number of demand (read+write) MSHR miss cycles
system.cpu0.icache.overall_mshr_miss_latency::cpu0.inst     89544366                       # number of overall MSHR miss cycles
system.cpu0.icache.overall_mshr_miss_latency::total     89544366                       # number of overall MSHR miss cycles
system.cpu0.icache.ReadReq_mshr_miss_rate::cpu0.inst     0.000060                       # mshr miss rate for ReadReq accesses
system.cpu0.icache.ReadReq_mshr_miss_rate::total     0.000060                       # mshr miss rate for ReadReq accesses
system.cpu0.icache.demand_mshr_miss_rate::cpu0.inst     0.000060                       # mshr miss rate for demand accesses
system.cpu0.icache.demand_mshr_miss_rate::total     0.000060                       # mshr miss rate for demand accesses
system.cpu0.icache.overall_mshr_miss_rate::cpu0.inst     0.000060                       # mshr miss rate for overall accesses
system.cpu0.icache.overall_mshr_miss_rate::total     0.000060                       # mshr miss rate for overall accesses
system.cpu0.icache.ReadReq_avg_mshr_miss_latency::cpu0.inst 64746.468547                       # average ReadReq mshr miss latency
system.cpu0.icache.ReadReq_avg_mshr_miss_latency::total 64746.468547                       # average ReadReq mshr miss latency
system.cpu0.icache.demand_avg_mshr_miss_latency::cpu0.inst 64746.468547                       # average overall mshr miss latency
system.cpu0.icache.demand_avg_mshr_miss_latency::total 64746.468547                       # average overall mshr miss latency
system.cpu0.icache.overall_avg_mshr_miss_latency::cpu0.inst 64746.468547                       # average overall mshr miss latency
system.cpu0.icache.overall_avg_mshr_miss_latency::total 64746.468547                       # average overall mshr miss latency
system.cpu0.itb_walker_cache.tags.pwrStateResidencyTicks::UNDEFINED  27788576274                       # Cumulative time (in ticks) in various power states
system.cpu0.itb_walker_cache.tags.replacements            0                       # number of replacements
system.cpu0.itb_walker_cache.tags.tagsinuse            0                       # Cycle average of tags in use
system.cpu0.itb_walker_cache.tags.total_refs            0                       # Total number of references to valid blocks.
system.cpu0.itb_walker_cache.tags.sampled_refs            0                       # Sample count of references to valid blocks.
system.cpu0.itb_walker_cache.tags.avg_refs          nan                       # Average number of references to valid blocks.
system.cpu0.itb_walker_cache.tags.warmup_cycle            0                       # Cycle when the warmup percentage was hit.
system.cpu0.itb_walker_cache.tags.tag_accesses            0                       # Number of tag accesses
system.cpu0.itb_walker_cache.tags.data_accesses            0                       # Number of data accesses
system.cpu0.itb_walker_cache.pwrStateResidencyTicks::UNDEFINED  27788576274                       # Cumulative time (in ticks) in various power states
system.cpu0.itb_walker_cache.blocked_cycles::no_mshrs            0                       # number of cycles access was blocked
system.cpu0.itb_walker_cache.blocked_cycles::no_targets            0                       # number of cycles access was blocked
system.cpu0.itb_walker_cache.blocked::no_mshrs            0                       # number of cycles access was blocked
system.cpu0.itb_walker_cache.blocked::no_targets            0                       # number of cycles access was blocked
system.cpu0.itb_walker_cache.avg_blocked_cycles::no_mshrs          nan                       # average number of cycles each access was blocked
system.cpu0.itb_walker_cache.avg_blocked_cycles::no_targets          nan                       # average number of cycles each access was blocked
system.cpu0.l2cache.tags.pwrStateResidencyTicks::UNDEFINED  27788576274                       # Cumulative time (in ticks) in various power states
system.cpu0.l2cache.tags.replacements           36142                       # number of replacements
system.cpu0.l2cache.tags.tagsinuse        4058.961958                       # Cycle average of tags in use
system.cpu0.l2cache.tags.total_refs             99068                       # Total number of references to valid blocks.
system.cpu0.l2cache.tags.sampled_refs           40238                       # Sample count of references to valid blocks.
system.cpu0.l2cache.tags.avg_refs            2.462051                       # Average number of references to valid blocks.
system.cpu0.l2cache.tags.warmup_cycle           78000                       # Cycle when the warmup percentage was hit.
system.cpu0.l2cache.tags.occ_blocks::writebacks     9.584730                       # Average occupied blocks per requestor
system.cpu0.l2cache.tags.occ_blocks::cpu0.inst    61.048089                       # Average occupied blocks per requestor
system.cpu0.l2cache.tags.occ_blocks::cpu0.data  3988.329139                       # Average occupied blocks per requestor
system.cpu0.l2cache.tags.occ_percent::writebacks     0.002340                       # Average percentage of cache occupancy
system.cpu0.l2cache.tags.occ_percent::cpu0.inst     0.014904                       # Average percentage of cache occupancy
system.cpu0.l2cache.tags.occ_percent::cpu0.data     0.973713                       # Average percentage of cache occupancy
system.cpu0.l2cache.tags.occ_percent::total     0.990958                       # Average percentage of cache occupancy
system.cpu0.l2cache.tags.occ_task_id_blocks::1024         4096                       # Occupied blocks per task id
system.cpu0.l2cache.tags.age_task_id_blocks_1024::0           13                       # Occupied blocks per task id
system.cpu0.l2cache.tags.age_task_id_blocks_1024::1          116                       # Occupied blocks per task id
system.cpu0.l2cache.tags.age_task_id_blocks_1024::2         1165                       # Occupied blocks per task id
system.cpu0.l2cache.tags.age_task_id_blocks_1024::3         2800                       # Occupied blocks per task id
system.cpu0.l2cache.tags.age_task_id_blocks_1024::4            2                       # Occupied blocks per task id
system.cpu0.l2cache.tags.occ_task_id_percent::1024            1                       # Percentage of cache occupancy per task id
system.cpu0.l2cache.tags.tag_accesses          597846                       # Number of tag accesses
system.cpu0.l2cache.tags.data_accesses         597846                       # Number of data accesses
system.cpu0.l2cache.pwrStateResidencyTicks::UNDEFINED  27788576274                       # Cumulative time (in ticks) in various power states
system.cpu0.l2cache.WritebackDirty_hits::writebacks         1841                       # number of WritebackDirty hits
system.cpu0.l2cache.WritebackDirty_hits::total         1841                       # number of WritebackDirty hits
system.cpu0.l2cache.WritebackClean_hits::writebacks          866                       # number of WritebackClean hits
system.cpu0.l2cache.WritebackClean_hits::total          866                       # number of WritebackClean hits
system.cpu0.l2cache.UpgradeReq_hits::cpu0.data            7                       # number of UpgradeReq hits
system.cpu0.l2cache.UpgradeReq_hits::total            7                       # number of UpgradeReq hits
system.cpu0.l2cache.ReadExReq_hits::cpu0.data           62                       # number of ReadExReq hits
system.cpu0.l2cache.ReadExReq_hits::total           62                       # number of ReadExReq hits
system.cpu0.l2cache.ReadCleanReq_hits::cpu0.inst           38                       # number of ReadCleanReq hits
system.cpu0.l2cache.ReadCleanReq_hits::total           38                       # number of ReadCleanReq hits
system.cpu0.l2cache.ReadSharedReq_hits::cpu0.data        30091                       # number of ReadSharedReq hits
system.cpu0.l2cache.ReadSharedReq_hits::total        30091                       # number of ReadSharedReq hits
system.cpu0.l2cache.demand_hits::cpu0.inst           38                       # number of demand (read+write) hits
system.cpu0.l2cache.demand_hits::cpu0.data        30153                       # number of demand (read+write) hits
system.cpu0.l2cache.demand_hits::total          30191                       # number of demand (read+write) hits
system.cpu0.l2cache.overall_hits::cpu0.inst           38                       # number of overall hits
system.cpu0.l2cache.overall_hits::cpu0.data        30153                       # number of overall hits
system.cpu0.l2cache.overall_hits::total         30191                       # number of overall hits
system.cpu0.l2cache.ReadExReq_misses::cpu0.data         1222                       # number of ReadExReq misses
[...]
system.l3.demand_mshr_miss_latency::cpu0.data    649289716                       # number of demand (read+write) MSHR miss cycles
system.l3.demand_mshr_miss_latency::cpu1.inst     68356472                       # number of demand (read+write) MSHR miss cycles
system.l3.demand_mshr_miss_latency::cpu1.data    768874656                       # number of demand (read+write) MSHR miss cycles
system.l3.demand_mshr_miss_latency::cpu2.inst     73511739                       # number of demand (read+write) MSHR miss cycles
system.l3.demand_mshr_miss_latency::cpu2.data    630779034                       # number of demand (read+write) MSHR miss cycles
system.l3.demand_mshr_miss_latency::cpu3.inst     67485349                       # number of demand (read+write) MSHR miss cycles
system.l3.demand_mshr_miss_latency::cpu3.data    673583863                       # number of demand (read+write) MSHR miss cycles
system.l3.demand_mshr_miss_latency::total   3001170633                       # number of demand (read+write) MSHR miss cycles
system.l3.overall_mshr_miss_latency::cpu0.inst     69289804                       # number of overall MSHR miss cycles
system.l3.overall_mshr_miss_latency::cpu0.data    649289716                       # number of overall MSHR miss cycles
system.l3.overall_mshr_miss_latency::cpu1.inst     68356472                       # number of overall MSHR miss cycles
system.l3.overall_mshr_miss_latency::cpu1.data    768874656                       # number of overall MSHR miss cycles
system.l3.overall_mshr_miss_latency::cpu2.inst     73511739                       # number of overall MSHR miss cycles
system.l3.overall_mshr_miss_latency::cpu2.data    630779034                       # number of overall MSHR miss cycles
system.l3.overall_mshr_miss_latency::cpu3.inst     67485349                       # number of overall MSHR miss cycles
system.l3.overall_mshr_miss_latency::cpu3.data    673583863                       # number of overall MSHR miss cycles
system.l3.overall_mshr_miss_latency::total   3001170633                       # number of overall MSHR miss cycles
system.l3.ReadExReq_mshr_miss_rate::cpu0.data     0.993453                       # mshr miss rate for ReadExReq accesses
system.l3.ReadExReq_mshr_miss_rate::cpu1.data     0.991115                       # mshr miss rate for ReadExReq accesses
system.l3.ReadExReq_mshr_miss_rate::cpu2.data     0.988664                       # mshr miss rate for ReadExReq accesses
system.l3.ReadExReq_mshr_miss_rate::cpu3.data     0.984653                       # mshr miss rate for ReadExReq accesses
system.l3.ReadExReq_mshr_miss_rate::total     0.989459                       # mshr miss rate for ReadExReq accesses
system.l3.ReadSharedReq_mshr_miss_rate::cpu0.inst     0.997765                       # mshr miss rate for ReadSharedReq accesses
system.l3.ReadSharedReq_mshr_miss_rate::cpu0.data     0.319278                       # mshr miss rate for ReadSharedReq accesses
system.l3.ReadSharedReq_mshr_miss_rate::cpu1.inst     0.997763                       # mshr miss rate for ReadSharedReq accesses
system.l3.ReadSharedReq_mshr_miss_rate::cpu1.data     0.314091                       # mshr miss rate for ReadSharedReq accesses
system.l3.ReadSharedReq_mshr_miss_rate::cpu2.inst            1                       # mshr miss rate for ReadSharedReq accesses
system.l3.ReadSharedReq_mshr_miss_rate::cpu2.data     0.317560                       # mshr miss rate for ReadSharedReq accesses
system.l3.ReadSharedReq_mshr_miss_rate::cpu3.inst     0.997041                       # mshr miss rate for ReadSharedReq accesses
system.l3.ReadSharedReq_mshr_miss_rate::cpu3.data     0.316285                       # mshr miss rate for ReadSharedReq accesses
system.l3.ReadSharedReq_mshr_miss_rate::total     0.340253                       # mshr miss rate for ReadSharedReq accesses
system.l3.demand_mshr_miss_rate::cpu0.inst     0.997765                       # mshr miss rate for demand accesses
system.l3.demand_mshr_miss_rate::cpu0.data     0.340557                       # mshr miss rate for demand accesses
system.l3.demand_mshr_miss_rate::cpu1.inst     0.997763                       # mshr miss rate for demand accesses
system.l3.demand_mshr_miss_rate::cpu1.data     0.335401                       # mshr miss rate for demand accesses
system.l3.demand_mshr_miss_rate::cpu2.inst            1                       # mshr miss rate for demand accesses
system.l3.demand_mshr_miss_rate::cpu2.data     0.338881                       # mshr miss rate for demand accesses
system.l3.demand_mshr_miss_rate::cpu3.inst     0.997041                       # mshr miss rate for demand accesses
system.l3.demand_mshr_miss_rate::cpu3.data     0.337473                       # mshr miss rate for demand accesses
system.l3.demand_mshr_miss_rate::total       0.360100                       # mshr miss rate for demand accesses
system.l3.overall_mshr_miss_rate::cpu0.inst     0.997765                       # mshr miss rate for overall accesses
system.l3.overall_mshr_miss_rate::cpu0.data     0.340557                       # mshr miss rate for overall accesses
system.l3.overall_mshr_miss_rate::cpu1.inst     0.997763                       # mshr miss rate for overall accesses
system.l3.overall_mshr_miss_rate::cpu1.data     0.335401                       # mshr miss rate for overall accesses
system.l3.overall_mshr_miss_rate::cpu2.inst            1                       # mshr miss rate for overall accesses
system.l3.overall_mshr_miss_rate::cpu2.data     0.338881                       # mshr miss rate for overall accesses
system.l3.overall_mshr_miss_rate::cpu3.inst     0.997041                       # mshr miss rate for overall accesses
system.l3.overall_mshr_miss_rate::cpu3.data     0.337473                       # mshr miss rate for overall accesses
system.l3.overall_mshr_miss_rate::total      0.360100                       # mshr miss rate for overall accesses
system.l3.ReadExReq_avg_mshr_miss_latency::cpu0.data 57792.279242                       # average ReadExReq mshr miss latency
system.l3.ReadExReq_avg_mshr_miss_latency::cpu1.data 72763.101874                       # average ReadExReq mshr miss latency
system.l3.ReadExReq_avg_mshr_miss_latency::cpu2.data 55335.914005                       # average ReadExReq mshr miss latency
system.l3.ReadExReq_avg_mshr_miss_latency::cpu3.data 53817.954881                       # average ReadExReq mshr miss latency
system.l3.ReadExReq_avg_mshr_miss_latency::total 59948.656218                       # average ReadExReq mshr miss latency
system.l3.ReadSharedReq_avg_mshr_miss_latency::cpu0.inst 51747.426438                       # average ReadSharedReq mshr miss latency
system.l3.ReadSharedReq_avg_mshr_miss_latency::cpu0.data 48377.736948                       # average ReadSharedReq mshr miss latency
system.l3.ReadSharedReq_avg_mshr_miss_latency::cpu1.inst 51088.544096                       # average ReadSharedReq mshr miss latency
system.l3.ReadSharedReq_avg_mshr_miss_latency::cpu1.data 56798.523193                       # average ReadSharedReq mshr miss latency
system.l3.ReadSharedReq_avg_mshr_miss_latency::cpu2.inst 54412.834197                       # average ReadSharedReq mshr miss latency
system.l3.ReadSharedReq_avg_mshr_miss_latency::cpu2.data 47122.982179                       # average ReadSharedReq mshr miss latency
system.l3.ReadSharedReq_avg_mshr_miss_latency::cpu3.inst 50063.315282                       # average ReadSharedReq mshr miss latency
system.l3.ReadSharedReq_avg_mshr_miss_latency::cpu3.data 50834.429431                       # average ReadSharedReq mshr miss latency
system.l3.ReadSharedReq_avg_mshr_miss_latency::total 50889.847475                       # average ReadSharedReq mshr miss latency
system.l3.demand_avg_mshr_miss_latency::cpu0.inst 51747.426438                       # average overall mshr miss latency
system.l3.demand_avg_mshr_miss_latency::cpu0.data 49244.574592                       # average overall mshr miss latency
system.l3.demand_avg_mshr_miss_latency::cpu1.inst 51088.544096                       # average overall mshr miss latency
system.l3.demand_avg_mshr_miss_latency::cpu1.data 58283.403275                       # average overall mshr miss latency
system.l3.demand_avg_mshr_miss_latency::cpu2.inst 54412.834197                       # average overall mshr miss latency
system.l3.demand_avg_mshr_miss_latency::cpu2.data 47884.235482                       # average overall mshr miss latency
system.l3.demand_avg_mshr_miss_latency::cpu3.inst 50063.315282                       # average overall mshr miss latency
system.l3.demand_avg_mshr_miss_latency::cpu3.data 51110.392518                       # average overall mshr miss latency
system.l3.demand_avg_mshr_miss_latency::total 51650.815472                       # average overall mshr miss latency
system.l3.overall_avg_mshr_miss_latency::cpu0.inst 51747.426438                       # average overall mshr miss latency
system.l3.overall_avg_mshr_miss_latency::cpu0.data 49244.574592                       # average overall mshr miss latency
system.l3.overall_avg_mshr_miss_latency::cpu1.inst 51088.544096                       # average overall mshr miss latency
system.l3.overall_avg_mshr_miss_latency::cpu1.data 58283.403275                       # average overall mshr miss latency
system.l3.overall_avg_mshr_miss_latency::cpu2.inst 54412.834197                       # average overall mshr miss latency
system.l3.overall_avg_mshr_miss_latency::cpu2.data 47884.235482                       # average overall mshr miss latency
system.l3.overall_avg_mshr_miss_latency::cpu3.inst 50063.315282                       # average overall mshr miss latency
system.l3.overall_avg_mshr_miss_latency::cpu3.data 51110.392518                       # average overall mshr miss latency
system.l3.overall_avg_mshr_miss_latency::total 51650.815472                       # average overall mshr miss latency
system.membus.snoop_filter.tot_requests         58105                       # Total number of requests made to the snoop filter.
system.membus.snoop_filter.hit_single_requests            0                       # Number of requests hitting in the snoop filter with a single holder of the requested data.
system.membus.snoop_filter.hit_multi_requests            0                       # Number of requests hitting in the snoop filter with multiple (>1) holders of the requested data.
system.membus.snoop_filter.tot_snoops               0                       # Total number of snoops made to the snoop filter.
system.membus.snoop_filter.hit_single_snoops            0                       # Number of snoops hitting in the snoop filter with a single holder of the requested data.
system.membus.snoop_filter.hit_multi_snoops            0                       # Number of snoops hitting in the snoop filter with multiple (>1) holders of the requested data.
system.membus.pwrStateResidencyTicks::UNDEFINED  27788576274                       # Cumulative time (in ticks) in various power states
system.membus.trans_dist::ReadResp              53224                       # Transaction distribution
system.membus.trans_dist::ReadExReq              4881                       # Transaction distribution
system.membus.trans_dist::ReadExResp             4881                       # Transaction distribution
system.membus.trans_dist::ReadSharedReq         53224                       # Transaction distribution
system.membus.pkt_count_system.l3.mem_side::system.mem_ctrls.port       116210                       # Packet count per connected master and slave (bytes)
system.membus.pkt_count_system.l3.mem_side::total       116210                       # Packet count per connected master and slave (bytes)
system.membus.pkt_count::total                 116210                       # Packet count per connected master and slave (bytes)
system.membus.pkt_size_system.l3.mem_side::system.mem_ctrls.port      3718720                       # Cumulative packet size per connected master and slave (bytes)
system.membus.pkt_size_system.l3.mem_side::total      3718720                       # Cumulative packet size per connected master and slave (bytes)
system.membus.pkt_size::total                 3718720                       # Cumulative packet size per connected master and slave (bytes)
system.membus.snoops                                0                       # Total snoops (count)
system.membus.snoopTraffic                          0                       # Total snoop traffic (bytes)
system.membus.snoop_fanout::samples             58105                       # Request fanout histogram
system.membus.snoop_fanout::mean                    0                       # Request fanout histogram
system.membus.snoop_fanout::stdev                   0                       # Request fanout histogram
system.membus.snoop_fanout::underflows              0      0.00%      0.00% # Request fanout histogram
system.membus.snoop_fanout::0                   58105    100.00%    100.00% # Request fanout histogram
system.membus.snoop_fanout::1                       0      0.00%    100.00% # Request fanout histogram
system.membus.snoop_fanout::overflows               0      0.00%    100.00% # Request fanout histogram
system.membus.snoop_fanout::min_value               0                       # Request fanout histogram
system.membus.snoop_fanout::max_value               0                       # Request fanout histogram
system.membus.snoop_fanout::total               58105                       # Request fanout histogram
system.membus.reqLayer8.occupancy            76869258                       # Layer occupancy (ticks)
system.membus.reqLayer8.utilization               0.3                       # Layer utilization (%)
system.membus.respLayer1.occupancy          316421773                       # Layer occupancy (ticks)
system.membus.respLayer1.utilization              1.1                       # Layer utilization (%)
system.tol3bus.snoop_filter.tot_requests       303993                       # Total number of requests made to the snoop filter.
system.tol3bus.snoop_filter.hit_single_requests       142656                       # Number of requests hitting in the snoop filter with a single holder of the requested data.
system.tol3bus.snoop_filter.hit_multi_requests            0                       # Number of requests hitting in the snoop filter with multiple (>1) holders of the requested data.
system.tol3bus.snoop_filter.tot_snoops              0                       # Total number of snoops made to the snoop filter.
system.tol3bus.snoop_filter.hit_single_snoops            0                       # Number of snoops hitting in the snoop filter with a single holder of the requested data.
system.tol3bus.snoop_filter.hit_multi_snoops            0                       # Number of snoops hitting in the snoop filter with multiple (>1) holders of the requested data.
system.tol3bus.pwrStateResidencyTicks::UNDEFINED  27788576274                       # Cumulative time (in ticks) in various power states
system.tol3bus.trans_dist::ReadResp            156425                       # Transaction distribution
system.tol3bus.trans_dist::WritebackDirty         4936                       # Transaction distribution
system.tol3bus.trans_dist::CleanEvict          137699                       # Transaction distribution
system.tol3bus.trans_dist::ReadExReq             4933                       # Transaction distribution
system.tol3bus.trans_dist::ReadExResp            4933                       # Transaction distribution
system.tol3bus.trans_dist::ReadSharedReq       156425                       # Transaction distribution
system.tol3bus.pkt_count_system.cpu0.l2cache.mem_side::system.l3.cpu_side       115489                       # Packet count per connected master and slave (bytes)
system.tol3bus.pkt_count_system.cpu1.l2cache.mem_side::system.l3.cpu_side       117342                       # Packet count per connected master and slave (bytes)
system.tol3bus.pkt_count_system.cpu2.l2cache.mem_side::system.l3.cpu_side       115988                       # Packet count per connected master and slave (bytes)
system.tol3bus.pkt_count_system.cpu3.l2cache.mem_side::system.l3.cpu_side       116532                       # Packet count per connected master and slave (bytes)
system.tol3bus.pkt_count::total                465351                       # Packet count per connected master and slave (bytes)
system.tol3bus.pkt_size_system.cpu0.l2cache.mem_side::system.l3.cpu_side      2642752                       # Cumulative packet size per connected master and slave (bytes)
system.tol3bus.pkt_size_system.cpu1.l2cache.mem_side::system.l3.cpu_side      2680896                       # Cumulative packet size per connected master and slave (bytes)
system.tol3bus.pkt_size_system.cpu2.l2cache.mem_side::system.l3.cpu_side      2654336                       # Cumulative packet size per connected master and slave (bytes)
system.tol3bus.pkt_size_system.cpu3.l2cache.mem_side::system.l3.cpu_side      2664832                       # Cumulative packet size per connected master and slave (bytes)
system.tol3bus.pkt_size::total               10642816                       # Cumulative packet size per connected master and slave (bytes)
system.tol3bus.snoops                               0                       # Total snoops (count)
system.tol3bus.snoopTraffic                         0                       # Total snoop traffic (bytes)
system.tol3bus.snoop_fanout::samples           161358                       # Request fanout histogram
system.tol3bus.snoop_fanout::mean                   0                       # Request fanout histogram
system.tol3bus.snoop_fanout::stdev                  0                       # Request fanout histogram
system.tol3bus.snoop_fanout::underflows             0      0.00%      0.00% # Request fanout histogram
system.tol3bus.snoop_fanout::0                 161358    100.00%    100.00% # Request fanout histogram
system.tol3bus.snoop_fanout::1                      0      0.00%    100.00% # Request fanout histogram
system.tol3bus.snoop_fanout::2                      0      0.00%    100.00% # Request fanout histogram
system.tol3bus.snoop_fanout::3                      0      0.00%    100.00% # Request fanout histogram
system.tol3bus.snoop_fanout::4                      0      0.00%    100.00% # Request fanout histogram
system.tol3bus.snoop_fanout::overflows              0      0.00%    100.00% # Request fanout histogram
system.tol3bus.snoop_fanout::min_value              0                       # Request fanout histogram
system.tol3bus.snoop_fanout::max_value              0                       # Request fanout histogram
system.tol3bus.snoop_fanout::total             161358                       # Request fanout histogram
system.tol3bus.reqLayer0.occupancy          421246360                       # Layer occupancy (ticks)
system.tol3bus.reqLayer0.utilization              1.5                       # Layer utilization (%)
system.tol3bus.respLayer0.occupancy         131319827                       # Layer occupancy (ticks)
system.tol3bus.respLayer0.utilization             0.5                       # Layer utilization (%)
system.tol3bus.respLayer1.occupancy         133384707                       # Layer occupancy (ticks)
system.tol3bus.respLayer1.utilization             0.5                       # Layer utilization (%)
system.tol3bus.respLayer2.occupancy         131890013                       # Layer occupancy (ticks)
system.tol3bus.respLayer2.utilization             0.5                       # Layer utilization (%)
system.tol3bus.respLayer3.occupancy         132479624                       # Layer occupancy (ticks)
system.tol3bus.respLayer3.utilization             0.5                       # Layer utilization (%)

---------- End Simulation Statistics   ----------
