
---------- Begin Simulation Statistics ----------
sim_seconds                                  0.005157                       # Number of seconds simulated
sim_ticks                                  5157112059                       # Number of ticks simulated
final_tick                                 5157112059                       # Number of ticks from beginning of simulation (restored from checkpoints and never reset)
sim_freq                                 1000000000000                       # Frequency of simulated ticks
host_inst_rate                                  91761                       # Simulator instruction rate (inst/s)
host_op_rate                                   179718                       # Simulator op (including micro ops) rate (op/s)
host_tick_rate                               11856299                       # Simulator tick rate (ticks/s)
host_mem_usage                               33997908                       # Number of bytes of host memory used
host_seconds                                   434.97                       # Real time elapsed on the host
sim_insts                                    39913024                       # Number of instructions simulated
sim_ops                                      78171526                       # Number of ops (including micro ops) simulated
system.voltage_domain.voltage                       1                       # Voltage in Volts
system.clk_domain.clock                          1000                       # Clock period in ticks
system.mem_ctrls.pwrStateResidencyTicks::UNDEFINED   5157112059                       # Cumulative time (in ticks) in various power states
system.mem_ctrls.bytes_read::cpu0.inst         241536                       # Number of bytes read from this memory
system.mem_ctrls.bytes_read::cpu0.data         245888                       # Number of bytes read from this memory
system.mem_ctrls.bytes_read::cpu1.inst         240640                       # Number of bytes read from this memory
system.mem_ctrls.bytes_read::cpu1.data         244992                       # Number of bytes read from this memory
system.mem_ctrls.bytes_read::cpu2.inst         240512                       # Number of bytes read from this memory
system.mem_ctrls.bytes_read::cpu2.data         244288                       # Number of bytes read from this memory
system.mem_ctrls.bytes_read::cpu3.inst         240256                       # Number of bytes read from this memory
system.mem_ctrls.bytes_read::cpu3.data         243840                       # Number of bytes read from this memory
system.mem_ctrls.bytes_read::total            1941952                       # Number of bytes read from this memory
system.mem_ctrls.bytes_inst_read::cpu0.inst       241536                       # Number of instructions bytes read from this memory
system.mem_ctrls.bytes_inst_read::cpu1.inst       240640                       # Number of instructions bytes read from this memory
system.mem_ctrls.bytes_inst_read::cpu2.inst       240512                       # Number of instructions bytes read from this memory
system.mem_ctrls.bytes_inst_read::cpu3.inst       240256                       # Number of instructions bytes read from this memory
system.mem_ctrls.bytes_inst_read::total        962944                       # Number of instructions bytes read from this memory
system.mem_ctrls.num_reads::cpu0.inst            3774                       # Number of read requests responded to by this memory
system.mem_ctrls.num_reads::cpu0.data            3842                       # Number of read requests responded to by this memory
system.mem_ctrls.num_reads::cpu1.inst            3760                       # Number of read requests responded to by this memory
system.mem_ctrls.num_reads::cpu1.data            3828                       # Number of read requests responded to by this memory
system.mem_ctrls.num_reads::cpu2.inst            3758                       # Number of read requests responded to by this memory
system.mem_ctrls.num_reads::cpu2.data            3817                       # Number of read requests responded to by this memory
system.mem_ctrls.num_reads::cpu3.inst            3754                       # Number of read requests responded to by this memory
system.mem_ctrls.num_reads::cpu3.data            3810                       # Number of read requests responded to by this memory
system.mem_ctrls.num_reads::total               30343                       # Number of read requests responded to by this memory
system.mem_ctrls.bw_read::cpu0.inst          46835515                       # Total read bandwidth from this memory (bytes/s)
system.mem_ctrls.bw_read::cpu0.data          47679398                       # Total read bandwidth from this memory (bytes/s)
system.mem_ctrls.bw_read::cpu1.inst          46661775                       # Total read bandwidth from this memory (bytes/s)
system.mem_ctrls.bw_read::cpu1.data          47505658                       # Total read bandwidth from this memory (bytes/s)
system.mem_ctrls.bw_read::cpu2.inst          46636954                       # Total read bandwidth from this memory (bytes/s)
system.mem_ctrls.bw_read::cpu2.data          47369147                       # Total read bandwidth from this memory (bytes/s)
system.mem_ctrls.bw_read::cpu3.inst          46587314                       # Total read bandwidth from this memory (bytes/s)
system.mem_ctrls.bw_read::cpu3.data          47282277                       # Total read bandwidth from this memory (bytes/s)
system.mem_ctrls.bw_read::total             376558038                       # Total read bandwidth from this memory (bytes/s)
system.mem_ctrls.bw_inst_read::cpu0.inst     46835515                       # Instruction read bandwidth from this memory (bytes/s)
system.mem_ctrls.bw_inst_read::cpu1.inst     46661775                       # Instruction read bandwidth from this memory (bytes/s)
system.mem_ctrls.bw_inst_read::cpu2.inst     46636954                       # Instruction read bandwidth from this memory (bytes/s)
system.mem_ctrls.bw_inst_read::cpu3.inst     46587314                       # Instruction read bandwidth from this memory (bytes/s)
system.mem_ctrls.bw_inst_read::total        186721558                       # Instruction read bandwidth from this memory (bytes/s)
system.mem_ctrls.bw_total::cpu0.inst         46835515                       # Total bandwidth to/from this memory (bytes/s)
system.mem_ctrls.bw_total::cpu0.data         47679398                       # Total bandwidth to/from this memory (bytes/s)
system.mem_ctrls.bw_total::cpu1.inst         46661775                       # Total bandwidth to/from this memory (bytes/s)
system.mem_ctrls.bw_total::cpu1.data         47505658                       # Total bandwidth to/from this memory (bytes/s)
system.mem_ctrls.bw_total::cpu2.inst         46636954                       # Total bandwidth to/from this memory (bytes/s)
system.mem_ctrls.bw_total::cpu2.data         47369147                       # Total bandwidth to/from this memory (bytes/s)
system.mem_ctrls.bw_total::cpu3.inst         46587314                       # Total bandwidth to/from this memory (bytes/s)
system.mem_ctrls.bw_total::cpu3.data         47282277                       # Total bandwidth to/from this memory (bytes/s)
system.mem_ctrls.bw_total::total            376558038                       # Total bandwidth to/from this memory (bytes/s)
system.pwrStateResidencyTicks::UNDEFINED   5157112059                       # Cumulative time (in ticks) in various power states
system.cpu0.branchPred.lookups                6448526                       # Number of BP lookups
system.cpu0.branchPred.condPredicted          6448526                       # Number of conditional branches predicted
system.cpu0.branchPred.condIncorrect           808187                       # Number of conditional branches incorrect
system.cpu0.branchPred.BTBLookups             5361309                       # Number of BTB lookups
system.cpu0.branchPred.BTBHits                      0                       # Number of BTB hits
system.cpu0.branchPred.BTBCorrect                   0                       # Number of correct BTB predictions (this stat may not work properly.
system.cpu0.branchPred.BTBHitPct             0.000000                       # BTB Hit Percentage
system.cpu0.branchPred.usedRAS                 805833                       # Number of times the RAS was used to get a target.
system.cpu0.branchPred.RASInCorrect            195647                       # Number of incorrect RAS predictions.
system.cpu0.branchPred.indirectLookups        5361309                       # Number of indirect predictor lookups.
system.cpu0.branchPred.indirectHits            990022                       # Number of indirect target hits.
system.cpu0.branchPred.indirectMisses         4371287                       # Number of indirect misses.
system.cpu0.branchPredindirectMispredicted       558002                       # Number of mispredicted indirect branches.
system.cpu_voltage_domain.voltage                   1                       # Voltage in Volts
system.cpu_clk_domain.clock                       333                       # Clock period in ticks
system.cpu0.dtb.walker.pwrStateResidencyTicks::UNDEFINED   5157112059                       # Cumulative time (in ticks) in various power states
system.cpu0.dtb.rdAccesses                    4063928                       # TLB accesses on read requests
system.cpu0.dtb.wrAccesses                    2425715                       # TLB accesses on write requests
system.cpu0.dtb.rdMisses                        69125                       # TLB misses on read requests
system.cpu0.dtb.wrMisses                        28666                       # TLB misses on write requests
system.cpu0.apic_clk_domain.clock                5328                       # Clock period in ticks
system.cpu0.interrupts.pwrStateResidencyTicks::UNDEFINED   5157112059                       # Cumulative time (in ticks) in various power states
system.cpu0.itb.walker.pwrStateResidencyTicks::UNDEFINED   5157112059                       # Cumulative time (in ticks) in various power states
system.cpu0.itb.rdAccesses                          0                       # TLB accesses on read requests
system.cpu0.itb.wrAccesses                    3930977                       # TLB accesses on write requests
system.cpu0.itb.rdMisses                            0                       # TLB misses on read requests
system.cpu0.itb.wrMisses                         9078                       # TLB misses on write requests
system.cpu0.workload.numSyscalls                   35                       # Number of system calls
system.cpu0.pwrStateResidencyTicks::ON     5157112059                       # Cumulative time (in ticks) in various power states
system.cpu0.numCycles                        15486824                       # number of cpu cycles simulated
system.cpu0.numWorkItemsStarted                     0                       # number of work items this cpu started
system.cpu0.numWorkItemsCompleted                   0                       # number of work items this cpu completed
system.cpu0.fetch.icacheStallCycles           5452934                       # Number of cycles fetch is stalled on an Icache miss
system.cpu0.fetch.Insts                      27072520                       # Number of instructions fetch has processed
system.cpu0.fetch.Branches                    6448526                       # Number of branches that fetch encountered
system.cpu0.fetch.predictedBranches           1795855                       # Number of branches that fetch has predicted taken
system.cpu0.fetch.Cycles                      8915173                       # Number of cycles fetch has run and was not squashing or blocked
system.cpu0.fetch.SquashCycles                1623760                       # Number of cycles fetch has spent squashing
system.cpu0.fetch.TlbCycles                         2                       # Number of cycles fetch has spent waiting for tlb
system.cpu0.fetch.MiscStallCycles                4525                       # Number of cycles fetch has spent waiting on interrupts, or bad addresses, or out of MSHRs
system.cpu0.fetch.PendingTrapStallCycles        27372                       # Number of stall cycles due to pending traps
system.cpu0.fetch.PendingQuiesceStallCycles            6                       # Number of stall cycles due to pending quiesce instructions
system.cpu0.fetch.IcacheWaitRetryStallCycles          231                       # Number of stall cycles due to full MSHR
system.cpu0.fetch.CacheLines                  3923840                       # Number of cache lines fetched
system.cpu0.fetch.IcacheSquashes               261033                       # Number of outstanding Icache misses that were squashed
system.cpu0.fetch.rateDist::samples          15212123                       # Number of instructions fetched each cycle (Total)
system.cpu0.fetch.rateDist::mean             3.469438                       # Number of instructions fetched each cycle (Total)
system.cpu0.fetch.rateDist::stdev            3.648169                       # Number of instructions fetched each cycle (Total)
system.cpu0.fetch.rateDist::underflows              0      0.00%      0.00% # Number of instructions fetched each cycle (Total)
system.cpu0.fetch.rateDist::0                 7104688     46.70%     46.70% # Number of instructions fetched each cycle (Total)
system.cpu0.fetch.rateDist::1                  435166      2.86%     49.56% # Number of instructions fetched each cycle (Total)
system.cpu0.fetch.rateDist::2                  375963      2.47%     52.04% # Number of instructions fetched each cycle (Total)
system.cpu0.fetch.rateDist::3                  423527      2.78%     54.82% # Number of instructions fetched each cycle (Total)
system.cpu0.fetch.rateDist::4                  564479      3.71%     58.53% # Number of instructions fetched each cycle (Total)
system.cpu0.fetch.rateDist::5                  376040      2.47%     61.00% # Number of instructions fetched each cycle (Total)
system.cpu0.fetch.rateDist::6                  432898      2.85%     63.85% # Number of instructions fetched each cycle (Total)
system.cpu0.fetch.rateDist::7                  410556      2.70%     66.55% # Number of instructions fetched each cycle (Total)
system.cpu0.fetch.rateDist::8                 5088806     33.45%    100.00% # Number of instructions fetched each cycle (Total)
system.cpu0.fetch.rateDist::overflows               0      0.00%    100.00% # Number of instructions fetched each cycle (Total)
system.cpu0.fetch.rateDist::min_value               0                       # Number of instructions fetched each cycle (Total)
system.cpu0.fetch.rateDist::max_value               8                       # Number of instructions fetched each cycle (Total)
system.cpu0.fetch.rateDist::total            15212123                       # Number of instructions fetched each cycle (Total)
system.cpu0.fetch.branchRate                 0.416388                       # Number of branch fetches per cycle
system.cpu0.fetch.rate                       1.748100                       # Number of inst fetches per cycle
system.cpu0.decode.IdleCycles                 4614661                       # Number of cycles decode is idle
system.cpu0.decode.BlockedCycles              2699663                       # Number of cycles decode is blocked
system.cpu0.decode.RunCycles                  6468137                       # Number of cycles decode is running
system.cpu0.decode.UnblockCycles               617782                       # Number of cycles decode is unblocking
system.cpu0.decode.SquashCycles                811880                       # Number of cycles decode is squashing
system.cpu0.decode.DecodedInsts              48565399                       # Number of instructions handled by decode
system.cpu0.rename.SquashCycles                811880                       # Number of cycles rename is squashing
system.cpu0.rename.IdleCycles                 5113442                       # Number of cycles rename is idle
system.cpu0.rename.BlockCycles                2275532                       # Number of cycles rename is blocking
system.cpu0.rename.serializeStallCycles         18855                       # count of cycles rename stalled for serializing inst
system.cpu0.rename.RunCycles                  6533113                       # Number of cycles rename is running
system.cpu0.rename.UnblockCycles               459301                       # Number of cycles rename is unblocking
system.cpu0.rename.RenamedInsts              45109836                       # Number of instructions processed by rename
system.cpu0.rename.ROBFullEvents                 1394                       # Number of times rename has blocked due to ROB full
system.cpu0.rename.IQFullEvents                228998                       # Number of times rename has blocked due to IQ full
system.cpu0.rename.LQFullEvents                  2552                       # Number of times rename has blocked due to LQ full
system.cpu0.rename.SQFullEvents                197843                       # Number of times rename has blocked due to SQ full
system.cpu0.rename.RenamedOperands           46481109                       # Number of destination operands rename has renamed
system.cpu0.rename.RenameLookups            110043844                       # Number of register rename lookups that rename has made
system.cpu0.rename.int_rename_lookups        65435073                       # Number of integer rename lookups
system.cpu0.rename.fp_rename_lookups          2285918                       # Number of floating rename lookups
system.cpu0.rename.CommittedMaps             20553861                       # Number of HB maps that are committed
system.cpu0.rename.UndoneMaps                25927248                       # Number of HB maps that are undone due to squashing
system.cpu0.rename.serializingInsts              2286                       # count of serializing insts renamed
system.cpu0.rename.tempSerializingInsts          2669                       # count of temporary serializing insts renamed
system.cpu0.rename.skidInsts                   693172                       # count of insts added to the skid buffer
system.cpu0.memDep0.insertedLoads             5278666                       # Number of loads inserted to the mem dependence unit.
system.cpu0.memDep0.insertedStores            3233015                       # Number of stores inserted to the mem dependence unit.
system.cpu0.memDep0.conflictingLoads            99526                       # Number of conflicting loads.
system.cpu0.memDep0.conflictingStores           88314                       # Number of conflicting stores.
system.cpu0.iq.iqInstsAdded                  38023683                       # Number of instructions added to the IQ (excludes non-spec)
system.cpu0.iq.iqNonSpecInstsAdded              78415                       # Number of non-speculative instructions added to the IQ
system.cpu0.iq.iqInstsIssued                 32404646                       # Number of instructions issued
system.cpu0.iq.iqSquashedInstsIssued           231210                       # Number of squashed instructions issued
system.cpu0.iq.iqSquashedInstsExamined       18560509                       # Number of squashed instructions iterated over during squash; mainly for profiling
system.cpu0.iq.iqSquashedOperandsExamined     24582376                       # Number of squashed operands that are examined and possibly removed from graph
system.cpu0.iq.iqSquashedNonSpecRemoved         71180                       # Number of squashed non-spec instructions that were removed
system.cpu0.iq.issued_per_cycle::samples     15212123                       # Number of insts issued each cycle
system.cpu0.iq.issued_per_cycle::mean        2.130186                       # Number of insts issued each cycle
system.cpu0.iq.issued_per_cycle::stdev       2.554210                       # Number of insts issued each cycle
system.cpu0.iq.issued_per_cycle::underflows            0      0.00%      0.00% # Number of insts issued each cycle
system.cpu0.iq.issued_per_cycle::0            7333742     48.21%     48.21% # Number of insts issued each cycle
system.cpu0.iq.issued_per_cycle::1            1084020      7.13%     55.34% # Number of insts issued each cycle
system.cpu0.iq.issued_per_cycle::2            1166016      7.67%     63.00% # Number of insts issued each cycle
system.cpu0.iq.issued_per_cycle::3            1038638      6.83%     69.83% # Number of insts issued each cycle
system.cpu0.iq.issued_per_cycle::4            1066972      7.01%     76.84% # Number of insts issued each cycle
system.cpu0.iq.issued_per_cycle::5            1148780      7.55%     84.39% # Number of insts issued each cycle
system.cpu0.iq.issued_per_cycle::6            1206414      7.93%     92.32% # Number of insts issued each cycle
system.cpu0.iq.issued_per_cycle::7             717920      4.72%     97.04% # Number of insts issued each cycle
system.cpu0.iq.issued_per_cycle::8             449621      2.96%    100.00% # Number of insts issued each cycle
system.cpu0.iq.issued_per_cycle::overflows            0      0.00%    100.00% # Number of insts issued each cycle
system.cpu0.iq.issued_per_cycle::min_value            0                       # Number of insts issued each cycle
system.cpu0.iq.issued_per_cycle::max_value            8                       # Number of insts issued each cycle
system.cpu0.iq.issued_per_cycle::total       15212123                       # Number of insts issued each cycle
system.cpu0.iq.fu_full::No_OpClass                  0      0.00%      0.00% # attempts to use FU when none available
system.cpu0.iq.fu_full::IntAlu                 404527     79.05%     79.05% # attempts to use FU when none available
system.cpu0.iq.fu_full::IntMult                     0      0.00%     79.05% # attempts to use FU when none available
system.cpu0.iq.fu_full::IntDiv                      0      0.00%     79.05% # attempts to use FU when none available
system.cpu0.iq.fu_full::FloatAdd                 3276      0.64%     79.69% # attempts to use FU when none available
system.cpu0.iq.fu_full::FloatCmp                    0      0.00%     79.69% # attempts to use FU when none available
system.cpu0.iq.fu_full::FloatCvt                    0      0.00%     79.69% # attempts to use FU when none available
system.cpu0.iq.fu_full::FloatMult                   0      0.00%     79.69% # attempts to use FU when none available
system.cpu0.iq.fu_full::FloatMultAcc                0      0.00%     79.69% # attempts to use FU when none available
system.cpu0.iq.fu_full::FloatDiv                    0      0.00%     79.69% # attempts to use FU when none available
system.cpu0.iq.fu_full::FloatMisc                   0      0.00%     79.69% # attempts to use FU when none available
system.cpu0.iq.fu_full::FloatSqrt                   0      0.00%     79.69% # attempts to use FU when none available
system.cpu0.iq.fu_full::SimdAdd                     0      0.00%     79.69% # attempts to use FU when none available
system.cpu0.iq.fu_full::SimdAddAcc                  0      0.00%     79.69% # attempts to use FU when none available
system.cpu0.iq.fu_full::SimdAlu                     0      0.00%     79.69% # attempts to use FU when none available
system.cpu0.iq.fu_full::SimdCmp                     0      0.00%     79.69% # attempts to use FU when none available
system.cpu0.iq.fu_full::SimdCvt                     0      0.00%     79.69% # attempts to use FU when none available
system.cpu0.iq.fu_full::SimdMisc                    0      0.00%     79.69% # attempts to use FU when none available
system.cpu0.iq.fu_full::SimdMult                    0      0.00%     79.69% # attempts to use FU when none available
system.cpu0.iq.fu_full::SimdMultAcc                 0      0.00%     79.69% # attempts to use FU when none available
system.cpu0.iq.fu_full::SimdShift                   0      0.00%     79.69% # attempts to use FU when none available
system.cpu0.iq.fu_full::SimdShiftAcc                0      0.00%     79.69% # attempts to use FU when none available
system.cpu0.iq.fu_full::SimdSqrt                    0      0.00%     79.69% # attempts to use FU when none available
system.cpu0.iq.fu_full::SimdFloatAdd                0      0.00%     79.69% # attempts to use FU when none available
system.cpu0.iq.fu_full::SimdFloatAlu                0      0.00%     79.69% # attempts to use FU when none available
system.cpu0.iq.fu_full::SimdFloatCmp                0      0.00%     79.69% # attempts to use FU when none available
system.cpu0.iq.fu_full::SimdFloatCvt                0      0.00%     79.69% # attempts to use FU when none available
system.cpu0.iq.fu_full::SimdFloatDiv                0      0.00%     79.69% # attempts to use FU when none available
system.cpu0.iq.fu_full::SimdFloatMisc               0      0.00%     79.69% # attempts to use FU when none available
system.cpu0.iq.fu_full::SimdFloatMult               0      0.00%     79.69% # attempts to use FU when none available
system.cpu0.iq.fu_full::SimdFloatMultAcc            0      0.00%     79.69% # attempts to use FU when none available
system.cpu0.iq.fu_full::SimdFloatSqrt               0      0.00%     79.69% # attempts to use FU when none available
system.cpu0.iq.fu_full::MemRead                 61319     11.98%     91.67% # attempts to use FU when none available
system.cpu0.iq.fu_full::MemWrite                35573      6.95%     98.62% # attempts to use FU when none available
system.cpu0.iq.fu_full::FloatMemRead             4237      0.83%     99.45% # attempts to use FU when none available
system.cpu0.iq.fu_full::FloatMemWrite            2813      0.55%    100.00% # attempts to use FU when none available
system.cpu0.iq.fu_full::IprAccess                   0      0.00%    100.00% # attempts to use FU when none available
system.cpu0.iq.fu_full::InstPrefetch                0      0.00%    100.00% # attempts to use FU when none available
system.cpu0.iq.FU_type_0::No_OpClass           417144      1.29%      1.29% # Type of FU issued
system.cpu0.iq.FU_type_0::IntAlu             24207154     74.70%     75.99% # Type of FU issued
system.cpu0.iq.FU_type_0::IntMult               43223      0.13%     76.12% # Type of FU issued
system.cpu0.iq.FU_type_0::IntDiv                40665      0.13%     76.25% # Type of FU issued
system.cpu0.iq.FU_type_0::FloatAdd             530089      1.64%     77.88% # Type of FU issued
system.cpu0.iq.FU_type_0::FloatCmp                  0      0.00%     77.88% # Type of FU issued
system.cpu0.iq.FU_type_0::FloatCvt                  0      0.00%     77.88% # Type of FU issued
system.cpu0.iq.FU_type_0::FloatMult                 0      0.00%     77.88% # Type of FU issued
system.cpu0.iq.FU_type_0::FloatMultAcc              0      0.00%     77.88% # Type of FU issued
system.cpu0.iq.FU_type_0::FloatDiv                  1      0.00%     77.88% # Type of FU issued
system.cpu0.iq.FU_type_0::FloatMisc                 0      0.00%     77.88% # Type of FU issued
system.cpu0.iq.FU_type_0::FloatSqrt                 0      0.00%     77.88% # Type of FU issued
system.cpu0.iq.FU_type_0::SimdAdd                   0      0.00%     77.88% # Type of FU issued
system.cpu0.iq.FU_type_0::SimdAddAcc                0      0.00%     77.88% # Type of FU issued
system.cpu0.iq.FU_type_0::SimdAlu                   0      0.00%     77.88% # Type of FU issued
system.cpu0.iq.FU_type_0::SimdCmp                   0      0.00%     77.88% # Type of FU issued
system.cpu0.iq.FU_type_0::SimdCvt                   0      0.00%     77.88% # Type of FU issued
system.cpu0.iq.FU_type_0::SimdMisc                  0      0.00%     77.88% # Type of FU issued
system.cpu0.iq.FU_type_0::SimdMult                  0      0.00%     77.88% # Type of FU issued
system.cpu0.iq.FU_type_0::SimdMultAcc               0      0.00%     77.88% # Type of FU issued
system.cpu0.iq.FU_type_0::SimdShift                 0      0.00%     77.88% # Type of FU issued
system.cpu0.iq.FU_type_0::SimdShiftAcc              0      0.00%     77.88% # Type of FU issued
system.cpu0.iq.FU_type_0::SimdSqrt                  0      0.00%     77.88% # Type of FU issued
system.cpu0.iq.FU_type_0::SimdFloatAdd              0      0.00%     77.88% # Type of FU issued
system.cpu0.iq.FU_type_0::SimdFloatAlu              0      0.00%     77.88% # Type of FU issued
system.cpu0.iq.FU_type_0::SimdFloatCmp              0      0.00%     77.88% # Type of FU issued
system.cpu0.iq.FU_type_0::SimdFloatCvt              0      0.00%     77.88% # Type of FU issued
system.cpu0.iq.FU_type_0::SimdFloatDiv              0      0.00%     77.88% # Type of FU issued
system.cpu0.iq.FU_type_0::SimdFloatMisc             0      0.00%     77.88% # Type of FU issued
system.cpu0.iq.FU_type_0::SimdFloatMult             0      0.00%     77.88% # Type of FU issued
system.cpu0.iq.FU_type_0::SimdFloatMultAcc            0      0.00%     77.88% # Type of FU issued
system.cpu0.iq.FU_type_0::SimdFloatSqrt             0      0.00%     77.88% # Type of FU issued
system.cpu0.iq.FU_type_0::MemRead             4118969     12.71%     90.60% # Type of FU issued
system.cpu0.iq.FU_type_0::MemWrite            2594559      8.01%     98.60% # Type of FU issued
system.cpu0.iq.FU_type_0::FloatMemRead         353547      1.09%     99.69% # Type of FU issued
system.cpu0.iq.FU_type_0::FloatMemWrite         99295      0.31%    100.00% # Type of FU issued
system.cpu0.iq.FU_type_0::IprAccess                 0      0.00%    100.00% # Type of FU issued
system.cpu0.iq.FU_type_0::InstPrefetch              0      0.00%    100.00% # Type of FU issued
system.cpu0.iq.FU_type_0::total              32404646                       # Type of FU issued
system.cpu0.iq.rate                          2.092401                       # Inst issue rate
system.cpu0.iq.fu_busy_cnt                     511745                       # FU busy when requested
system.cpu0.iq.fu_busy_rate                  0.015792                       # FU busy rate (busy events/executed inst)
system.cpu0.iq.int_inst_queue_reads          78555497                       # Number of integer instruction queue reads
system.cpu0.iq.int_inst_queue_writes         54632862                       # Number of integer instruction queue writes
system.cpu0.iq.int_inst_queue_wakeup_accesses     28456784                       # Number of integer instruction queue wakeup accesses
system.cpu0.iq.fp_inst_queue_reads            2208873                       # Number of floating instruction queue reads
system.cpu0.iq.fp_inst_queue_writes           2030570                       # Number of floating instruction queue writes
system.cpu0.iq.fp_inst_queue_wakeup_accesses       997330                       # Number of floating instruction queue wakeup accesses
system.cpu0.iq.vec_inst_queue_reads                 0                       # Number of vector instruction queue reads
system.cpu0.iq.vec_inst_queue_writes                0                       # Number of vector instruction queue writes
system.cpu0.iq.vec_inst_queue_wakeup_accesses            0                       # Number of vector instruction queue wakeup accesses
system.cpu0.iq.int_alu_accesses              31394190                       # Number of integer alu accesses
system.cpu0.iq.fp_alu_accesses                1105057                       # Number of floating point alu accesses
system.cpu0.iq.vec_alu_accesses                     0                       # Number of vector alu accesses
system.cpu0.iew.lsq.thread0.forwLoads          359441                       # Number of loads that had data forwarded from stores
system.cpu0.iew.lsq.thread0.invAddrLoads            0                       # Number of loads ignored due to an invalid address
system.cpu0.iew.lsq.thread0.squashedLoads      2759428                       # Number of loads squashed
system.cpu0.iew.lsq.thread0.ignoredResponses        18348                       # Number of memory responses ignored because the instruction is squashed
system.cpu0.iew.lsq.thread0.memOrderViolation          982                       # Number of memory ordering violations
system.cpu0.iew.lsq.thread0.squashedStores      1508346                       # Number of stores squashed
system.cpu0.iew.lsq.thread0.invAddrSwpfs            0                       # Number of software prefetches ignored due to an invalid address
system.cpu0.iew.lsq.thread0.blockedLoads            0                       # Number of blocked loads due to partial load-store forwarding
system.cpu0.iew.lsq.thread0.rescheduledLoads         2878                       # Number of loads that were rescheduled
system.cpu0.iew.lsq.thread0.cacheBlocked          178                       # Number of times an access to memory failed due to the cache being blocked
system.cpu0.iew.iewIdleCycles                       0                       # Number of cycles IEW is idle
system.cpu0.iew.iewSquashCycles                811880                       # Number of cycles IEW is squashing
system.cpu0.iew.iewBlockCycles                2174926                       # Number of cycles IEW is blocking
system.cpu0.iew.iewUnblockCycles                82610                       # Number of cycles IEW is unblocking
system.cpu0.iew.iewDispatchedInsts           38102098                       # Number of instructions dispatched to IQ
system.cpu0.iew.iewDispSquashedInsts            62697                       # Number of squashed instructions skipped by dispatch
system.cpu0.iew.iewDispLoadInsts              5278666                       # Number of dispatched load instructions
system.cpu0.iew.iewDispStoreInsts             3233015                       # Number of dispatched store instructions
system.cpu0.iew.iewDispNonSpecInsts             27867                       # Number of dispatched non-speculative instructions
system.cpu0.iew.iewIQFullEvents                  2826                       # Number of times the IQ has become full, causing a stall
system.cpu0.iew.iewLSQFullEvents                78285                       # Number of times the LSQ has become full, causing a stall
system.cpu0.iew.memOrderViolationEvents           982                       # Number of memory order violations
system.cpu0.iew.predictedTakenIncorrect        271664                       # Number of branches that were predicted taken incorrectly
system.cpu0.iew.predictedNotTakenIncorrect       829334                       # Number of branches that were predicted not taken incorrectly
system.cpu0.iew.branchMispredicts             1100998                       # Number of branch mispredicts detected at execute
system.cpu0.iew.iewExecutedInsts             30317368                       # Number of executed instructions
system.cpu0.iew.iewExecLoadInsts              4059929                       # Number of load instructions executed
system.cpu0.iew.iewExecSquashedInsts          2087278                       # Number of squashed instructions skipped in execute
system.cpu0.iew.exec_swp                            0                       # number of swp insts executed
system.cpu0.iew.exec_nop                            0                       # number of nop insts executed
system.cpu0.iew.exec_refs                     6484528                       # number of memory reference insts executed
system.cpu0.iew.exec_branches                 3294160                       # Number of branches executed
system.cpu0.iew.exec_stores                   2424599                       # Number of stores executed
system.cpu0.iew.exec_rate                    1.957623                       # Inst execution rate
system.cpu0.iew.wb_sent                      29847544                       # cumulative count of insts sent to commit
system.cpu0.iew.wb_count                     29454114                       # cumulative count of insts written-back
system.cpu0.iew.wb_producers                 19418945                       # num instructions producing a value
system.cpu0.iew.wb_consumers                 31992998                       # num instructions consuming a value
system.cpu0.iew.wb_rate                      1.901882                       # insts written-back per cycle
system.cpu0.iew.wb_fanout                    0.606975                       # average fanout of values written-back
system.cpu0.commit.commitSquashedInsts       18561246                       # The number of squashed insts skipped by commit
system.cpu0.commit.commitNonSpecStalls           7235                       # The number of times commit has been forced to stall to communicate backwards
system.cpu0.commit.branchMispredicts           811310                       # The number of times a branch was mispredicted
system.cpu0.commit.committed_per_cycle::samples     12275567                       # Number of insts commited each cycle
system.cpu0.commit.committed_per_cycle::mean     1.591909                       # Number of insts commited each cycle
system.cpu0.commit.committed_per_cycle::stdev     2.453647                       # Number of insts commited each cycle
system.cpu0.commit.committed_per_cycle::underflows            0      0.00%      0.00% # Number of insts commited each cycle
system.cpu0.commit.committed_per_cycle::0      6931353     56.46%     56.46% # Number of insts commited each cycle
system.cpu0.commit.committed_per_cycle::1      1380167     11.24%     67.71% # Number of insts commited each cycle
system.cpu0.commit.committed_per_cycle::2       838494      6.83%     74.54% # Number of insts commited each cycle
system.cpu0.commit.committed_per_cycle::3      1004846      8.19%     82.72% # Number of insts commited each cycle
system.cpu0.commit.committed_per_cycle::4       463021      3.77%     86.50% # Number of insts commited each cycle
system.cpu0.commit.committed_per_cycle::5       311827      2.54%     89.04% # Number of insts commited each cycle
system.cpu0.commit.committed_per_cycle::6       259121      2.11%     91.15% # Number of insts commited each cycle
system.cpu0.commit.committed_per_cycle::7       189953      1.55%     92.69% # Number of insts commited each cycle
system.cpu0.commit.committed_per_cycle::8       896785      7.31%    100.00% # Number of insts commited each cycle
system.cpu0.commit.committed_per_cycle::overflows            0      0.00%    100.00% # Number of insts commited each cycle
system.cpu0.commit.committed_per_cycle::min_value            0                       # Number of insts commited each cycle
system.cpu0.commit.committed_per_cycle::max_value            8                       # Number of insts commited each cycle
system.cpu0.commit.committed_per_cycle::total     12275567                       # Number of insts commited each cycle
system.cpu0.commit.committedInsts             9977539                       # Number of instructions committed
system.cpu0.commit.committedOps              19541589                       # Number of ops (including micro ops) committed
system.cpu0.commit.swp_count                        0                       # Number of s/w prefetches committed
system.cpu0.commit.refs                       4243907                       # Number of memory references committed
system.cpu0.commit.loads                      2519238                       # Number of loads committed
system.cpu0.commit.membars                       4800                       # Number of memory barriers committed
system.cpu0.commit.branches                   2417353                       # Number of branches committed
system.cpu0.commit.vec_insts                        0                       # Number of committed Vector instructions.
system.cpu0.commit.fp_insts                    740234                       # Number of committed floating point instructions.
system.cpu0.commit.int_insts                 19044914                       # Number of committed integer instructions.
system.cpu0.commit.function_calls              336379                       # Number of function calls committed.
system.cpu0.commit.op_class_0::No_OpClass        92817      0.47%      0.47% # Class of committed instruction
system.cpu0.commit.op_class_0::IntAlu        14734654     75.40%     75.88% # Class of committed instruction
system.cpu0.commit.op_class_0::IntMult          43024      0.22%     76.10% # Class of committed instruction
system.cpu0.commit.op_class_0::IntDiv           40525      0.21%     76.30% # Class of committed instruction
system.cpu0.commit.op_class_0::FloatAdd        386662      1.98%     78.28% # Class of committed instruction
system.cpu0.commit.op_class_0::FloatCmp             0      0.00%     78.28% # Class of committed instruction
system.cpu0.commit.op_class_0::FloatCvt             0      0.00%     78.28% # Class of committed instruction
system.cpu0.commit.op_class_0::FloatMult            0      0.00%     78.28% # Class of committed instruction
system.cpu0.commit.op_class_0::FloatMultAcc            0      0.00%     78.28% # Class of committed instruction
system.cpu0.commit.op_class_0::FloatDiv             0      0.00%     78.28% # Class of committed instruction
system.cpu0.commit.op_class_0::FloatMisc            0      0.00%     78.28% # Class of committed instruction
system.cpu0.commit.op_class_0::FloatSqrt            0      0.00%     78.28% # Class of committed instruction
system.cpu0.commit.op_class_0::SimdAdd              0      0.00%     78.28% # Class of committed instruction
system.cpu0.commit.op_class_0::SimdAddAcc            0      0.00%     78.28% # Class of committed instruction
system.cpu0.commit.op_class_0::SimdAlu              0      0.00%     78.28% # Class of committed instruction
system.cpu0.commit.op_class_0::SimdCmp              0      0.00%     78.28% # Class of committed instruction
system.cpu0.commit.op_class_0::SimdCvt              0      0.00%     78.28% # Class of committed instruction
system.cpu0.commit.op_class_0::SimdMisc             0      0.00%     78.28% # Class of committed instruction
system.cpu0.commit.op_class_0::SimdMult             0      0.00%     78.28% # Class of committed instruction
system.cpu0.commit.op_class_0::SimdMultAcc            0      0.00%     78.28% # Class of committed instruction
system.cpu0.commit.op_class_0::SimdShift            0      0.00%     78.28% # Class of committed instruction
system.cpu0.commit.op_class_0::SimdShiftAcc            0      0.00%     78.28% # Class of committed instruction
system.cpu0.commit.op_class_0::SimdSqrt             0      0.00%     78.28% # Class of committed instruction
system.cpu0.commit.op_class_0::SimdFloatAdd            0      0.00%     78.28% # Class of committed instruction
system.cpu0.commit.op_class_0::SimdFloatAlu            0      0.00%     78.28% # Class of committed instruction
system.cpu0.commit.op_class_0::SimdFloatCmp            0      0.00%     78.28% # Class of committed instruction
system.cpu0.commit.op_class_0::SimdFloatCvt            0      0.00%     78.28% # Class of committed instruction
system.cpu0.commit.op_class_0::SimdFloatDiv            0      0.00%     78.28% # Class of committed instruction
system.cpu0.commit.op_class_0::SimdFloatMisc            0      0.00%     78.28% # Class of committed instruction
system.cpu0.commit.op_class_0::SimdFloatMult            0      0.00%     78.28% # Class of committed instruction
system.cpu0.commit.op_class_0::SimdFloatMultAcc            0      0.00%     78.28% # Class of committed instruction
system.cpu0.commit.op_class_0::SimdFloatSqrt            0      0.00%     78.28% # Class of committed instruction
system.cpu0.commit.op_class_0::MemRead        2309020     11.82%     90.10% # Class of committed instruction
system.cpu0.commit.op_class_0::MemWrite       1647781      8.43%     98.53% # Class of committed instruction
system.cpu0.commit.op_class_0::FloatMemRead       210218      1.08%     99.61% # Class of committed instruction
system.cpu0.commit.op_class_0::FloatMemWrite        76888      0.39%    100.00% # Class of committed instruction
system.cpu0.commit.op_class_0::IprAccess            0      0.00%    100.00% # Class of committed instruction
system.cpu0.commit.op_class_0::InstPrefetch            0      0.00%    100.00% # Class of committed instruction
system.cpu0.commit.op_class_0::total         19541589                       # Class of committed instruction
system.cpu0.commit.bw_lim_events               896785                       # number cycles where commit BW limit reached
system.cpu0.rob.rob_reads                    49481617                       # The number of ROB reads
system.cpu0.rob.rob_writes                   79230748                       # The number of ROB writes
system.cpu0.timesIdled                           4280                       # Number of times that the entire CPU went into an idle state and unscheduled itself
system.cpu0.idleCycles                         274701                       # Total number of cycles that the CPU has spent unscheduled due to idling
system.cpu0.committedInsts                    9977539                       # Number of Instructions Simulated
system.cpu0.committedOps                     19541589                       # Number of Ops (including micro ops) Simulated
system.cpu0.cpi                              1.552169                       # CPI: Cycles Per Instruction
system.cpu0.cpi_total                        1.552169                       # CPI: Total CPI of All Threads
system.cpu0.ipc                              0.644260                       # IPC: Instructions Per Cycle
system.cpu0.ipc_total                        0.644260                       # IPC: Total IPC of All Threads
system.cpu0.int_regfile_reads                41781908                       # number of integer regfile reads
system.cpu0.int_regfile_writes               22930297                       # number of integer regfile writes
system.cpu0.fp_regfile_reads                  1449472                       # number of floating regfile reads
system.cpu0.fp_regfile_writes                  816766                       # number of floating regfile writes
system.cpu0.cc_regfile_reads                 13566055                       # number of cc regfile reads
system.cpu0.cc_regfile_writes                 6989329                       # number of cc regfile writes
system.cpu0.misc_regfile_reads               13588856                       # number of misc regfile reads
system.cpu0.dcache.tags.pwrStateResidencyTicks::UNDEFINED   5157112059                       # Cumulative time (in ticks) in various power states
system.cpu0.dcache.tags.replacements            38708                       # number of replacements
system.cpu0.dcache.tags.tagsinuse          508.671731                       # Cycle average of tags in use
system.cpu0.dcache.tags.total_refs            5303425                       # Total number of references to valid blocks.
system.cpu0.dcache.tags.sampled_refs            39220                       # Sample count of references to valid blocks.
system.cpu0.dcache.tags.avg_refs           135.222463                       # Average number of references to valid blocks.
system.cpu0.dcache.tags.warmup_cycle           155178                       # Cycle when the warmup percentage was hit.
system.cpu0.dcache.tags.occ_blocks::cpu0.data   508.671731                       # Average occupied blocks per requestor
system.cpu0.dcache.tags.occ_percent::cpu0.data     0.993499                       # Average percentage of cache occupancy
system.cpu0.dcache.tags.occ_percent::total     0.993499                       # Average percentage of cache occupancy
system.cpu0.dcache.tags.occ_task_id_blocks::1024          512                       # Occupied blocks per task id
system.cpu0.dcache.tags.age_task_id_blocks_1024::0           73                       # Occupied blocks per task id
system.cpu0.dcache.tags.age_task_id_blocks_1024::1          204                       # Occupied blocks per task id
system.cpu0.dcache.tags.age_task_id_blocks_1024::2          123                       # Occupied blocks per task id
system.cpu0.dcache.tags.age_task_id_blocks_1024::3          112                       # Occupied blocks per task id
system.cpu0.dcache.tags.occ_task_id_percent::1024            1                       # Percentage of cache occupancy per task id
system.cpu0.dcache.tags.tag_accesses         42910676                       # Number of tag accesses
system.cpu0.dcache.tags.data_accesses        42910676                       # Number of data accesses
system.cpu0.dcache.pwrStateResidencyTicks::UNDEFINED   5157112059                       # Cumulative time (in ticks) in various power states
system.cpu0.dcache.ReadReq_hits::cpu0.data      3583105                       # number of ReadReq hits
system.cpu0.dcache.ReadReq_hits::total        3583105                       # number of ReadReq hits
system.cpu0.dcache.WriteReq_hits::cpu0.data      1719999                       # number of WriteReq hits
system.cpu0.dcache.WriteReq_hits::total       1719999                       # number of WriteReq hits
system.cpu0.dcache.demand_hits::cpu0.data      5303104                       # number of demand (read+write) hits
system.cpu0.dcache.demand_hits::total         5303104                       # number of demand (read+write) hits
system.cpu0.dcache.overall_hits::cpu0.data      5303104                       # number of overall hits
system.cpu0.dcache.overall_hits::total        5303104                       # number of overall hits
system.cpu0.dcache.ReadReq_misses::cpu0.data        50790                       # number of ReadReq misses
system.cpu0.dcache.ReadReq_misses::total        50790                       # number of ReadReq misses
system.cpu0.dcache.WriteReq_misses::cpu0.data         5038                       # number of WriteReq misses
system.cpu0.dcache.WriteReq_misses::total         5038                       # number of WriteReq misses
system.cpu0.dcache.demand_misses::cpu0.data        55828                       # number of demand (read+write) misses
system.cpu0.dcache.demand_misses::total         55828                       # number of demand (read+write) misses
system.cpu0.dcache.overall_misses::cpu0.data        55828                       # number of overall misses
system.cpu0.dcache.overall_misses::total        55828                       # number of overall misses
system.cpu0.dcache.ReadReq_miss_latency::cpu0.data    443812743                       # number of ReadReq miss cycles
system.cpu0.dcache.ReadReq_miss_latency::total    443812743                       # number of ReadReq miss cycles
system.cpu0.dcache.WriteReq_miss_latency::cpu0.data    162149688                       # number of WriteReq miss cycles
system.cpu0.dcache.WriteReq_miss_latency::total    162149688                       # number of WriteReq miss cycles
system.cpu0.dcache.demand_miss_latency::cpu0.data    605962431                       # number of demand (read+write) miss cycles
system.cpu0.dcache.demand_miss_latency::total    605962431                       # number of demand (read+write) miss cycles
system.cpu0.dcache.overall_miss_latency::cpu0.data    605962431                       # number of overall miss cycles
system.cpu0.dcache.overall_miss_latency::total    605962431                       # number of overall miss cycles
system.cpu0.dcache.ReadReq_accesses::cpu0.data      3633895                       # number of ReadReq accesses(hits+misses)
system.cpu0.dcache.ReadReq_accesses::total      3633895                       # number of ReadReq accesses(hits+misses)
system.cpu0.dcache.WriteReq_accesses::cpu0.data      1725037                       # number of WriteReq accesses(hits+misses)
system.cpu0.dcache.WriteReq_accesses::total      1725037                       # number of WriteReq accesses(hits+misses)
system.cpu0.dcache.demand_accesses::cpu0.data      5358932                       # number of demand (read+write) accesses
system.cpu0.dcache.demand_accesses::total      5358932                       # number of demand (read+write) accesses
system.cpu0.dcache.overall_accesses::cpu0.data      5358932                       # number of overall (read+write) accesses
system.cpu0.dcache.overall_accesses::total      5358932                       # number of overall (read+write) accesses
system.cpu0.dcache.ReadReq_miss_rate::cpu0.data     0.013977                       # miss rate for ReadReq accesses
system.cpu0.dcache.ReadReq_miss_rate::total     0.013977                       # miss rate for ReadReq accesses
system.cpu0.dcache.WriteReq_miss_rate::cpu0.data     0.002921                       # miss rate for WriteReq accesses
system.cpu0.dcache.WriteReq_miss_rate::total     0.002921                       # miss rate for WriteReq accesses
system.cpu0.dcache.demand_miss_rate::cpu0.data     0.010418                       # miss rate for demand accesses
system.cpu0.dcache.demand_miss_rate::total     0.010418                       # miss rate for demand accesses
system.cpu0.dcache.overall_miss_rate::cpu0.data     0.010418                       # miss rate for overall accesses
system.cpu0.dcache.overall_miss_rate::total     0.010418                       # miss rate for overall accesses
system.cpu0.dcache.ReadReq_avg_miss_latency::cpu0.data  8738.191435                       # average ReadReq miss latency
system.cpu0.dcache.ReadReq_avg_miss_latency::total  8738.191435                       # average ReadReq miss latency
system.cpu0.dcache.WriteReq_avg_miss_latency::cpu0.data 32185.329099                       # average WriteReq miss latency
system.cpu0.dcache.WriteReq_avg_miss_latency::total 32185.329099                       # average WriteReq miss latency
system.cpu0.dcache.demand_avg_miss_latency::cpu0.data 10854.095275                       # average overall miss latency
system.cpu0.dcache.demand_avg_miss_latency::total 10854.095275                       # average overall miss latency
system.cpu0.dcache.overall_avg_miss_latency::cpu0.data 10854.095275                       # average overall miss latency
system.cpu0.dcache.overall_avg_miss_latency::total 10854.095275                       # average overall miss latency
system.cpu0.dcache.blocked_cycles::no_mshrs         2131                       # number of cycles access was blocked
system.cpu0.dcache.blocked_cycles::no_targets            0                       # number of cycles access was blocked
system.cpu0.dcache.blocked::no_mshrs               82                       # number of cycles access was blocked
system.cpu0.dcache.blocked::no_targets              0                       # number of cycles access was blocked
system.cpu0.dcache.avg_blocked_cycles::no_mshrs    25.987805                       # average number of cycles each access was blocked
system.cpu0.dcache.avg_blocked_cycles::no_targets          nan                       # average number of cycles each access was blocked
system.cpu0.dcache.writebacks::writebacks        28876                       # number of writebacks
system.cpu0.dcache.writebacks::total            28876                       # number of writebacks
system.cpu0.dcache.ReadReq_mshr_hits::cpu0.data        16208                       # number of ReadReq MSHR hits
system.cpu0.dcache.ReadReq_mshr_hits::total        16208                       # number of ReadReq MSHR hits
system.cpu0.dcache.WriteReq_mshr_hits::cpu0.data          100                       # number of WriteReq MSHR hits
system.cpu0.dcache.WriteReq_mshr_hits::total          100                       # number of WriteReq MSHR hits
system.cpu0.dcache.demand_mshr_hits::cpu0.data        16308                       # number of demand (read+write) MSHR hits
system.cpu0.dcache.demand_mshr_hits::total        16308                       # number of demand (read+write) MSHR hits
system.cpu0.dcache.overall_mshr_hits::cpu0.data        16308                       # number of overall MSHR hits
system.cpu0.dcache.overall_mshr_hits::total        16308                       # number of overall MSHR hits
system.cpu0.dcache.ReadReq_mshr_misses::cpu0.data        34582                       # number of ReadReq MSHR misses
system.cpu0.dcache.ReadReq_mshr_misses::total        34582                       # number of ReadReq MSHR misses
system.cpu0.dcache.WriteReq_mshr_misses::cpu0.data         4938                       # number of WriteReq MSHR misses
system.cpu0.dcache.WriteReq_mshr_misses::total         4938                       # number of WriteReq MSHR misses
system.cpu0.dcache.demand_mshr_misses::cpu0.data        39520                       # number of demand (read+write) MSHR misses
system.cpu0.dcache.demand_mshr_misses::total        39520                       # number of demand (read+write) MSHR misses
system.cpu0.dcache.overall_mshr_misses::cpu0.data        39520                       # number of overall MSHR misses
system.cpu0.dcache.overall_mshr_misses::total        39520                       # number of overall MSHR misses
system.cpu0.dcache.ReadReq_mshr_miss_latency::cpu0.data    249404679                       # number of ReadReq MSHR miss cycles
system.cpu0.dcache.ReadReq_mshr_miss_latency::total    249404679                       # number of ReadReq MSHR miss cycles
system.cpu0.dcache.WriteReq_mshr_miss_latency::cpu0.data    156241935                       # number of WriteReq MSHR miss cycles
system.cpu0.dcache.WriteReq_mshr_miss_latency::total    156241935                       # number of WriteReq MSHR miss cycles
system.cpu0.dcache.demand_mshr_miss_latency::cpu0.data    405646614                       # number of demand (read+write) MSHR miss cycles
system.cpu0.dcache.demand_mshr_miss_latency::total    405646614                       # number of demand (read+write) MSHR miss cycles
system.cpu0.dcache.overall_mshr_miss_latency::cpu0.data    405646614                       # number of overall MSHR miss cycles
system.cpu0.dcache.overall_mshr_miss_latency::total    405646614                       # number of overall MSHR miss cycles
system.cpu0.dcache.ReadReq_mshr_miss_rate::cpu0.data     0.009517                       # mshr miss rate for ReadReq accesses
system.cpu0.dcache.ReadReq_mshr_miss_rate::total     0.009517                       # mshr miss rate for ReadReq accesses
system.cpu0.dcache.WriteReq_mshr_miss_rate::cpu0.data     0.002863                       # mshr miss rate for WriteReq accesses
system.cpu0.dcache.WriteReq_mshr_miss_rate::total     0.002863                       # mshr miss rate for WriteReq accesses
system.cpu0.dcache.demand_mshr_miss_rate::cpu0.data     0.007375                       # mshr miss rate for demand accesses
system.cpu0.dcache.demand_mshr_miss_rate::total     0.007375                       # mshr miss rate for demand accesses
system.cpu0.dcache.overall_mshr_miss_rate::cpu0.data     0.007375                       # mshr miss rate for overall accesses
system.cpu0.dcache.overall_mshr_miss_rate::total     0.007375                       # mshr miss rate for overall accesses
system.cpu0.dcache.ReadReq_avg_mshr_miss_latency::cpu0.data  7211.979614                       # average ReadReq mshr miss latency
system.cpu0.dcache.ReadReq_avg_mshr_miss_latency::total  7211.979614                       # average ReadReq mshr miss latency
system.cpu0.dcache.WriteReq_avg_mshr_miss_latency::cpu0.data 31640.732078                       # average WriteReq mshr miss latency
system.cpu0.dcache.WriteReq_avg_mshr_miss_latency::total 31640.732078                       # average WriteReq mshr miss latency
system.cpu0.dcache.demand_avg_mshr_miss_latency::cpu0.data 10264.337399                       # average overall mshr miss latency
system.cpu0.dcache.demand_avg_mshr_miss_latency::total 10264.337399                       # average overall mshr miss latency
system.cpu0.dcache.overall_avg_mshr_miss_latency::cpu0.data 10264.337399                       # average overall mshr miss latency
system.cpu0.dcache.overall_avg_mshr_miss_latency::total 10264.337399                       # average overall mshr miss latency
system.cpu0.dtb_walker_cache.tags.pwrStateResidencyTicks::UNDEFINED   5157112059                       # Cumulative time (in ticks) in various power states
system.cpu0.dtb_walker_cache.tags.replacements            0                       # number of replacements
system.cpu0.dtb_walker_cache.tags.tagsinuse            0                       # Cycle average of tags in use
system.cpu0.dtb_walker_cache.tags.total_refs            0                       # Total number of references to valid blocks.
system.cpu0.dtb_walker_cache.tags.sampled_refs            0                       # Sample count of references to valid blocks.
system.cpu0.dtb_walker_cache.tags.avg_refs          nan                       # Average number of references to valid blocks.
system.cpu0.dtb_walker_cache.tags.warmup_cycle            0                       # Cycle when the warmup percentage was hit.
system.cpu0.dtb_walker_cache.tags.tag_accesses            0                       # Number of tag accesses
system.cpu0.dtb_walker_cache.tags.data_accesses            0                       # Number of data accesses
system.cpu0.dtb_walker_cache.pwrStateResidencyTicks::UNDEFINED   5157112059                       # Cumulative time (in ticks) in various power states
system.cpu0.dtb_walker_cache.blocked_cycles::no_mshrs            0                       # number of cycles access was blocked
system.cpu0.dtb_walker_cache.blocked_cycles::no_targets            0                       # number of cycles access was blocked
system.cpu0.dtb_walker_cache.blocked::no_mshrs            0                       # number of cycles access was blocked
system.cpu0.dtb_walker_cache.blocked::no_targets            0                       # number of cycles access was blocked
system.cpu0.dtb_walker_cache.avg_blocked_cycles::no_mshrs          nan                       # average number of cycles each access was blocked
system.cpu0.dtb_walker_cache.avg_blocked_cycles::no_targets          nan                       # average number of cycles each access was blocked
system.cpu0.icache.tags.pwrStateResidencyTicks::UNDEFINED   5157112059                       # Cumulative time (in ticks) in various power states
system.cpu0.icache.tags.replacements           120630                       # number of replacements
system.cpu0.icache.tags.tagsinuse          509.673053                       # Cycle average of tags in use
system.cpu0.icache.tags.total_refs            3793765                       # Total number of references to valid blocks.
system.cpu0.icache.tags.sampled_refs           121142                       # Sample count of references to valid blocks.
system.cpu0.icache.tags.avg_refs            31.316678                       # Average number of references to valid blocks.
system.cpu0.icache.tags.warmup_cycle            81252                       # Cycle when the warmup percentage was hit.
system.cpu0.icache.tags.occ_blocks::cpu0.inst   509.673053                       # Average occupied blocks per requestor
system.cpu0.icache.tags.occ_percent::cpu0.inst     0.995455                       # Average percentage of cache occupancy
system.cpu0.icache.tags.occ_percent::total     0.995455                       # Average percentage of cache occupancy
system.cpu0.icache.tags.occ_task_id_blocks::1024          512                       # Occupied blocks per task id
system.cpu0.icache.tags.age_task_id_blocks_1024::0          196                       # Occupied blocks per task id
system.cpu0.icache.tags.age_task_id_blocks_1024::1          110                       # Occupied blocks per task id
system.cpu0.icache.tags.age_task_id_blocks_1024::2           78                       # Occupied blocks per task id
system.cpu0.icache.tags.age_task_id_blocks_1024::3          128                       # Occupied blocks per task id
system.cpu0.icache.tags.occ_task_id_percent::1024            1                       # Percentage of cache occupancy per task id
system.cpu0.icache.tags.tag_accesses         31512118                       # Number of tag accesses
system.cpu0.icache.tags.data_accesses        31512118                       # Number of data accesses
system.cpu0.icache.pwrStateResidencyTicks::UNDEFINED   5157112059                       # Cumulative time (in ticks) in various power states
system.cpu0.icache.ReadReq_hits::cpu0.inst      3793780                       # number of ReadReq hits
system.cpu0.icache.ReadReq_hits::total        3793780                       # number of ReadReq hits
system.cpu0.icache.demand_hits::cpu0.inst      3793780                       # number of demand (read+write) hits
system.cpu0.icache.demand_hits::total         3793780                       # number of demand (read+write) hits
system.cpu0.icache.overall_hits::cpu0.inst      3793780                       # number of overall hits
system.cpu0.icache.overall_hits::total        3793780                       # number of overall hits
system.cpu0.icache.ReadReq_misses::cpu0.inst       130059                       # number of ReadReq misses
system.cpu0.icache.ReadReq_misses::total       130059                       # number of ReadReq misses
system.cpu0.icache.demand_misses::cpu0.inst       130059                       # number of demand (read+write) misses
system.cpu0.icache.demand_misses::total        130059                       # number of demand (read+write) misses
system.cpu0.icache.overall_misses::cpu0.inst       130059                       # number of overall misses
system.cpu0.icache.overall_misses::total       130059                       # number of overall misses
system.cpu0.icache.ReadReq_miss_latency::cpu0.inst    880441340                       # number of ReadReq miss cycles
system.cpu0.icache.ReadReq_miss_latency::total    880441340                       # number of ReadReq miss cycles
system.cpu0.icache.demand_miss_latency::cpu0.inst    880441340                       # number of demand (read+write) miss cycles
system.cpu0.icache.demand_miss_latency::total    880441340                       # number of demand (read+write) miss cycles
system.cpu0.icache.overall_miss_latency::cpu0.inst    880441340                       # number of overall miss cycles
system.cpu0.icache.overall_miss_latency::total    880441340                       # number of overall miss cycles
system.cpu0.icache.ReadReq_accesses::cpu0.inst      3923839                       # number of ReadReq accesses(hits+misses)
system.cpu0.icache.ReadReq_accesses::total      3923839                       # number of ReadReq accesses(hits+misses)
system.cpu0.icache.demand_accesses::cpu0.inst      3923839                       # number of demand (read+write) accesses
system.cpu0.icache.demand_accesses::total      3923839                       # number of demand (read+write) accesses
system.cpu0.icache.overall_accesses::cpu0.inst      3923839                       # number of overall (read+write) accesses
system.cpu0.icache.overall_accesses::total      3923839                       # number of overall (read+write) accesses
system.cpu0.icache.ReadReq_miss_rate::cpu0.inst     0.033146                       # miss rate for ReadReq accesses
system.cpu0.icache.ReadReq_miss_rate::total     0.033146                       # miss rate for ReadReq accesses
system.cpu0.icache.demand_miss_rate::cpu0.inst     0.033146                       # miss rate for demand accesses
system.cpu0.icache.demand_miss_rate::total     0.033146                       # miss rate for demand accesses
system.cpu0.icache.overall_miss_rate::cpu0.inst     0.033146                       # miss rate for overall accesses
system.cpu0.icache.overall_miss_rate::total     0.033146                       # miss rate for overall accesses
system.cpu0.icache.ReadReq_avg_miss_latency::cpu0.inst  6769.553357                       # average ReadReq miss latency
system.cpu0.icache.ReadReq_avg_miss_latency::total  6769.553357                       # average ReadReq miss latency
system.cpu0.icache.demand_avg_miss_latency::cpu0.inst  6769.553357                       # average overall miss latency
system.cpu0.icache.demand_avg_miss_latency::total  6769.553357                       # average overall miss latency
system.cpu0.icache.overall_avg_miss_latency::cpu0.inst  6769.553357                       # average overall miss latency
system.cpu0.icache.overall_avg_miss_latency::total  6769.553357                       # average overall miss latency
system.cpu0.icache.blocked_cycles::no_mshrs         2240                       # number of cycles access was blocked
system.cpu0.icache.blocked_cycles::no_targets            0                       # number of cycles access was blocked
system.cpu0.icache.blocked::no_mshrs               44                       # number of cycles access was blocked
system.cpu0.icache.blocked::no_targets              0                       # number of cycles access was blocked
system.cpu0.icache.avg_blocked_cycles::no_mshrs    50.909091                       # average number of cycles each access was blocked
system.cpu0.icache.avg_blocked_cycles::no_targets          nan                       # average number of cycles each access was blocked
system.cpu0.icache.writebacks::writebacks       120630                       # number of writebacks
system.cpu0.icache.writebacks::total           120630                       # number of writebacks
system.cpu0.icache.ReadReq_mshr_hits::cpu0.inst         8653                       # number of ReadReq MSHR hits
system.cpu0.icache.ReadReq_mshr_hits::total         8653                       # number of ReadReq MSHR hits
system.cpu0.icache.demand_mshr_hits::cpu0.inst         8653                       # number of demand (read+write) MSHR hits
system.cpu0.icache.demand_mshr_hits::total         8653                       # number of demand (read+write) MSHR hits
system.cpu0.icache.overall_mshr_hits::cpu0.inst         8653                       # number of overall MSHR hits
system.cpu0.icache.overall_mshr_hits::total         8653                       # number of overall MSHR hits
system.cpu0.icache.ReadReq_mshr_misses::cpu0.inst       121406                       # number of ReadReq MSHR misses
system.cpu0.icache.ReadReq_mshr_misses::total       121406                       # number of ReadReq MSHR misses
system.cpu0.icache.demand_mshr_misses::cpu0.inst       121406                       # number of demand (read+write) MSHR misses
system.cpu0.icache.demand_mshr_misses::total       121406                       # number of demand (read+write) MSHR misses
system.cpu0.icache.overall_mshr_misses::cpu0.inst       121406                       # number of overall MSHR misses
system.cpu0.icache.overall_mshr_misses::total       121406                       # number of overall MSHR misses
system.cpu0.icache.ReadReq_mshr_miss_latency::cpu0.inst    727032236                       # number of ReadReq MSHR miss cycles
system.cpu0.icache.ReadReq_mshr_miss_latency::total    727032236                       # number of ReadReq MSHR miss cycles
system.cpu0.icache.demand_mshr_miss_latency::cpu0.inst    727032236                       # number of demand (read+write) MSHR miss cycles
system.cpu0.icache.demand_mshr_miss_latency::total    727032236                       # number of demand (read+write) MSHR miss cycles
system.cpu0.icache.overall_mshr_miss_latency::cpu0.inst    727032236                       # number of overall MSHR miss cycles
system.cpu0.icache.overall_mshr_miss_latency::total    727032236                       # number of overall MSHR miss cycles
system.cpu0.icache.ReadReq_mshr_miss_rate::cpu0.inst     0.030941                       # mshr miss rate for ReadReq accesses
system.cpu0.icache.ReadReq_mshr_miss_rate::total     0.030941                       # mshr miss rate for ReadReq accesses
system.cpu0.icache.demand_mshr_miss_rate::cpu0.inst     0.030941                       # mshr miss rate for demand accesses
system.cpu0.icache.demand_mshr_miss_rate::total     0.030941                       # mshr miss rate for demand accesses
system.cpu0.icache.overall_mshr_miss_rate::cpu0.inst     0.030941                       # mshr miss rate for overall accesses
system.cpu0.icache.overall_mshr_miss_rate::total     0.030941                       # mshr miss rate for overall accesses
system.cpu0.icache.ReadReq_avg_mshr_miss_latency::cpu0.inst  5988.437441                       # average ReadReq mshr miss latency
system.cpu0.icache.ReadReq_avg_mshr_miss_latency::total  5988.437441                       # average ReadReq mshr miss latency
system.cpu0.icache.demand_avg_mshr_miss_latency::cpu0.inst  5988.437441                       # average overall mshr miss latency
system.cpu0.icache.demand_avg_mshr_miss_latency::total  5988.437441                       # average overall mshr miss latency
system.cpu0.icache.overall_avg_mshr_miss_latency::cpu0.inst  5988.437441                       # average overall mshr miss latency
system.cpu0.icache.overall_avg_mshr_miss_latency::total  5988.437441                       # average overall mshr miss latency
system.cpu0.itb_walker_cache.tags.pwrStateResidencyTicks::UNDEFINED   5157112059                       # Cumulative time (in ticks) in various power states
system.cpu0.itb_walker_cache.tags.replacements            0                       # number of replacements
system.cpu0.itb_walker_cache.tags.tagsinuse            0                       # Cycle average of tags in use
system.cpu0.itb_walker_cache.tags.total_refs            0                       # Total number of references to valid blocks.
system.cpu0.itb_walker_cache.tags.sampled_refs            0                       # Sample count of references to valid blocks.
system.cpu0.itb_walker_cache.tags.avg_refs          nan                       # Average number of references to valid blocks.
system.cpu0.itb_walker_cache.tags.warmup_cycle            0                       # Cycle when the warmup percentage was hit.
system.cpu0.itb_walker_cache.tags.tag_accesses            0                       # Number of tag accesses
system.cpu0.itb_walker_cache.tags.data_accesses            0                       # Number of data accesses
system.cpu0.itb_walker_cache.pwrStateResidencyTicks::UNDEFINED   5157112059                       # Cumulative time (in ticks) in various power states
system.cpu0.itb_walker_cache.blocked_cycles::no_mshrs            0                       # number of cycles access was blocked
system.cpu0.itb_walker_cache.blocked_cycles::no_targets            0                       # number of cycles access was blocked
system.cpu0.itb_walker_cache.blocked::no_mshrs            0                       # number of cycles access was blocked
system.cpu0.itb_walker_cache.blocked::no_targets            0                       # number of cycles access was blocked
system.cpu0.itb_walker_cache.avg_blocked_cycles::no_mshrs          nan                       # average number of cycles each access was blocked
system.cpu0.itb_walker_cache.avg_blocked_cycles::no_targets          nan                       # average number of cycles each access was blocked
system.cpu0.l2cache.tags.pwrStateResidencyTicks::UNDEFINED   5157112059                       # Cumulative time (in ticks) in various power states
system.cpu0.l2cache.tags.replacements            5013                       # number of replacements
system.cpu0.l2cache.tags.tagsinuse        3862.117478                       # Cycle average of tags in use
system.cpu0.l2cache.tags.total_refs            308968                       # Total number of references to valid blocks.
system.cpu0.l2cache.tags.sampled_refs            9047                       # Sample count of references to valid blocks.
system.cpu0.l2cache.tags.avg_refs           34.151431                       # Average number of references to valid blocks.
system.cpu0.l2cache.tags.warmup_cycle           78000                       # Cycle when the warmup percentage was hit.
system.cpu0.l2cache.tags.occ_blocks::writebacks   171.867766                       # Average occupied blocks per requestor
system.cpu0.l2cache.tags.occ_blocks::cpu0.inst  1858.635173                       # Average occupied blocks per requestor
system.cpu0.l2cache.tags.occ_blocks::cpu0.data  1831.614538                       # Average occupied blocks per requestor
system.cpu0.l2cache.tags.occ_percent::writebacks     0.041960                       # Average percentage of cache occupancy
system.cpu0.l2cache.tags.occ_percent::cpu0.inst     0.453768                       # Average percentage of cache occupancy
system.cpu0.l2cache.tags.occ_percent::cpu0.data     0.447172                       # Average percentage of cache occupancy
system.cpu0.l2cache.tags.occ_percent::total     0.942900                       # Average percentage of cache occupancy
system.cpu0.l2cache.tags.occ_task_id_blocks::1024         4034                       # Occupied blocks per task id
system.cpu0.l2cache.tags.age_task_id_blocks_1024::0            3                       # Occupied blocks per task id
system.cpu0.l2cache.tags.age_task_id_blocks_1024::1           13                       # Occupied blocks per task id
system.cpu0.l2cache.tags.age_task_id_blocks_1024::2          194                       # Occupied blocks per task id
system.cpu0.l2cache.tags.age_task_id_blocks_1024::3         3824                       # Occupied blocks per task id
system.cpu0.l2cache.tags.occ_task_id_percent::1024     0.984863                       # Percentage of cache occupancy per task id
system.cpu0.l2cache.tags.tag_accesses         1281623                       # Number of tag accesses
system.cpu0.l2cache.tags.data_accesses        1281623                       # Number of data accesses
system.cpu0.l2cache.pwrStateResidencyTicks::UNDEFINED   5157112059                       # Cumulative time (in ticks) in various power states
system.cpu0.l2cache.WritebackDirty_hits::writebacks        28876                       # number of WritebackDirty hits
system.cpu0.l2cache.WritebackDirty_hits::total        28876                       # number of WritebackDirty hits
system.cpu0.l2cache.WritebackClean_hits::writebacks       119673                       # number of WritebackClean hits
system.cpu0.l2cache.WritebackClean_hits::total       119673                       # number of WritebackClean hits
system.cpu0.l2cache.UpgradeReq_hits::cpu0.data          299                       # number of UpgradeReq hits
system.cpu0.l2cache.UpgradeReq_hits::total          299                       # number of UpgradeReq hits
system.cpu0.l2cache.ReadExReq_hits::cpu0.data         2232                       # number of ReadExReq hits
system.cpu0.l2cache.ReadExReq_hits::total         2232                       # number of ReadExReq hits
system.cpu0.l2cache.ReadCleanReq_hits::cpu0.inst       117063                       # number of ReadCleanReq hits
system.cpu0.l2cache.ReadCleanReq_hits::total       117063                       # number of ReadCleanReq hits
system.cpu0.l2cache.ReadSharedReq_hits::cpu0.data        32684                       # number of ReadSharedReq hits
system.cpu0.l2cache.ReadSharedReq_hits::total        32684                       # number of ReadSharedReq hits
system.cpu0.l2cache.demand_hits::cpu0.inst       117063                       # number of demand (read+write) hits
system.cpu0.l2cache.demand_hits::cpu0.data        34916                       # number of demand (read+write) hits
system.cpu0.l2cache.demand_hits::total         151979                       # number of demand (read+write) hits
system.cpu0.l2cache.overall_hits::cpu0.inst       117063                       # number of overall hits
system.cpu0.l2cache.overall_hits::cpu0.data        34916                       # number of overall hits
[...]
system.l3.demand_mshr_miss_latency::cpu1.inst    194419593                       # number of demand (read+write) MSHR miss cycles
system.l3.demand_mshr_miss_latency::cpu1.data    196032061                       # number of demand (read+write) MSHR miss cycles
system.l3.demand_mshr_miss_latency::cpu2.inst    190153137                       # number of demand (read+write) MSHR miss cycles
system.l3.demand_mshr_miss_latency::cpu2.data    199411652                       # number of demand (read+write) MSHR miss cycles
system.l3.demand_mshr_miss_latency::cpu3.inst    194610684                       # number of demand (read+write) MSHR miss cycles
system.l3.demand_mshr_miss_latency::cpu3.data    193671674                       # number of demand (read+write) MSHR miss cycles
system.l3.demand_mshr_miss_latency::total   1557681020                       # number of demand (read+write) MSHR miss cycles
system.l3.overall_mshr_miss_latency::cpu0.inst    194321965                       # number of overall MSHR miss cycles
system.l3.overall_mshr_miss_latency::cpu0.data    195060254                       # number of overall MSHR miss cycles
system.l3.overall_mshr_miss_latency::cpu1.inst    194419593                       # number of overall MSHR miss cycles
system.l3.overall_mshr_miss_latency::cpu1.data    196032061                       # number of overall MSHR miss cycles
system.l3.overall_mshr_miss_latency::cpu2.inst    190153137                       # number of overall MSHR miss cycles
system.l3.overall_mshr_miss_latency::cpu2.data    199411652                       # number of overall MSHR miss cycles
system.l3.overall_mshr_miss_latency::cpu3.inst    194610684                       # number of overall MSHR miss cycles
system.l3.overall_mshr_miss_latency::cpu3.data    193671674                       # number of overall MSHR miss cycles
system.l3.overall_mshr_miss_latency::total   1557681020                       # number of overall MSHR miss cycles
system.l3.ReadExReq_mshr_miss_rate::cpu0.data     0.993786                       # mshr miss rate for ReadExReq accesses
system.l3.ReadExReq_mshr_miss_rate::cpu1.data     0.997482                       # mshr miss rate for ReadExReq accesses
system.l3.ReadExReq_mshr_miss_rate::cpu2.data     0.993300                       # mshr miss rate for ReadExReq accesses
system.l3.ReadExReq_mshr_miss_rate::cpu3.data     0.994994                       # mshr miss rate for ReadExReq accesses
system.l3.ReadExReq_mshr_miss_rate::total     0.994886                       # mshr miss rate for ReadExReq accesses
system.l3.ReadSharedReq_mshr_miss_rate::cpu0.inst     0.932543                       # mshr miss rate for ReadSharedReq accesses
system.l3.ReadSharedReq_mshr_miss_rate::cpu0.data     0.763492                       # mshr miss rate for ReadSharedReq accesses
system.l3.ReadSharedReq_mshr_miss_rate::cpu1.inst     0.922926                       # mshr miss rate for ReadSharedReq accesses
system.l3.ReadSharedReq_mshr_miss_rate::cpu1.data     0.744867                       # mshr miss rate for ReadSharedReq accesses
system.l3.ReadSharedReq_mshr_miss_rate::cpu2.inst     0.921304                       # mshr miss rate for ReadSharedReq accesses
system.l3.ReadSharedReq_mshr_miss_rate::cpu2.data     0.733503                       # mshr miss rate for ReadSharedReq accesses
system.l3.ReadSharedReq_mshr_miss_rate::cpu3.inst     0.923039                       # mshr miss rate for ReadSharedReq accesses
system.l3.ReadSharedReq_mshr_miss_rate::cpu3.data     0.737196                       # mshr miss rate for ReadSharedReq accesses
system.l3.ReadSharedReq_mshr_miss_rate::total     0.866794                       # mshr miss rate for ReadSharedReq accesses
system.l3.demand_mshr_miss_rate::cpu0.inst     0.932543                       # mshr miss rate for demand accesses
system.l3.demand_mshr_miss_rate::cpu0.data     0.892658                       # mshr miss rate for demand accesses
system.l3.demand_mshr_miss_rate::cpu1.inst     0.922926                       # mshr miss rate for demand accesses
system.l3.demand_mshr_miss_rate::cpu1.data     0.883861                       # mshr miss rate for demand accesses
system.l3.demand_mshr_miss_rate::cpu2.inst     0.921304                       # mshr miss rate for demand accesses
system.l3.demand_mshr_miss_rate::cpu2.data     0.875860                       # mshr miss rate for demand accesses
system.l3.demand_mshr_miss_rate::cpu3.inst     0.923039                       # mshr miss rate for demand accesses
system.l3.demand_mshr_miss_rate::cpu3.data     0.879908                       # mshr miss rate for demand accesses
system.l3.demand_mshr_miss_rate::total       0.903334                       # mshr miss rate for demand accesses
system.l3.overall_mshr_miss_rate::cpu0.inst     0.932543                       # mshr miss rate for overall accesses
system.l3.overall_mshr_miss_rate::cpu0.data     0.892658                       # mshr miss rate for overall accesses
system.l3.overall_mshr_miss_rate::cpu1.inst     0.922926                       # mshr miss rate for overall accesses
system.l3.overall_mshr_miss_rate::cpu1.data     0.883861                       # mshr miss rate for overall accesses
system.l3.overall_mshr_miss_rate::cpu2.inst     0.921304                       # mshr miss rate for overall accesses
system.l3.overall_mshr_miss_rate::cpu2.data     0.875860                       # mshr miss rate for overall accesses
system.l3.overall_mshr_miss_rate::cpu3.inst     0.923039                       # mshr miss rate for overall accesses
system.l3.overall_mshr_miss_rate::cpu3.data     0.879908                       # mshr miss rate for overall accesses
system.l3.overall_mshr_miss_rate::total      0.903334                       # mshr miss rate for overall accesses
system.l3.ReadExReq_avg_mshr_miss_latency::cpu0.data 45837.240934                       # average ReadExReq mshr miss latency
system.l3.ReadExReq_avg_mshr_miss_latency::cpu1.data 46944.549011                       # average ReadExReq mshr miss latency
system.l3.ReadExReq_avg_mshr_miss_latency::cpu2.data 46725.573356                       # average ReadExReq mshr miss latency
system.l3.ReadExReq_avg_mshr_miss_latency::cpu3.data 46588.126625                       # average ReadExReq mshr miss latency
system.l3.ReadExReq_avg_mshr_miss_latency::total 46522.236022                       # average ReadExReq mshr miss latency
system.l3.ReadSharedReq_avg_mshr_miss_latency::cpu0.inst 51489.656863                       # average ReadSharedReq mshr miss latency
system.l3.ReadSharedReq_avg_mshr_miss_latency::cpu0.data 58972.081081                       # average ReadSharedReq mshr miss latency
system.l3.ReadSharedReq_avg_mshr_miss_latency::cpu1.inst 51707.338564                       # average ReadSharedReq mshr miss latency
system.l3.ReadSharedReq_avg_mshr_miss_latency::cpu1.data 58197.703653                       # average ReadSharedReq mshr miss latency
system.l3.ReadSharedReq_avg_mshr_miss_latency::cpu2.inst 50599.557477                       # average ReadSharedReq mshr miss latency
system.l3.ReadSharedReq_avg_mshr_miss_latency::cpu2.data 61300.063668                       # average ReadSharedReq mshr miss latency
system.l3.ReadSharedReq_avg_mshr_miss_latency::cpu3.inst 51840.885456                       # average ReadSharedReq mshr miss latency
system.l3.ReadSharedReq_avg_mshr_miss_latency::cpu3.data 57936.134737                       # average ReadSharedReq mshr miss latency
system.l3.ReadSharedReq_avg_mshr_miss_latency::total 53540.823835                       # average ReadSharedReq mshr miss latency
system.l3.demand_avg_mshr_miss_latency::cpu0.inst 51489.656863                       # average overall mshr miss latency
system.l3.demand_avg_mshr_miss_latency::cpu0.data 50770.498178                       # average overall mshr miss latency
system.l3.demand_avg_mshr_miss_latency::cpu1.inst 51707.338564                       # average overall mshr miss latency
system.l3.demand_avg_mshr_miss_latency::cpu1.data 51210.047283                       # average overall mshr miss latency
system.l3.demand_avg_mshr_miss_latency::cpu2.inst 50599.557477                       # average overall mshr miss latency
system.l3.demand_avg_mshr_miss_latency::cpu2.data 52243.031700                       # average overall mshr miss latency
system.l3.demand_avg_mshr_miss_latency::cpu3.inst 51840.885456                       # average overall mshr miss latency
system.l3.demand_avg_mshr_miss_latency::cpu3.data 50832.460367                       # average overall mshr miss latency
system.l3.demand_avg_mshr_miss_latency::total 51335.761790                       # average overall mshr miss latency
system.l3.overall_avg_mshr_miss_latency::cpu0.inst 51489.656863                       # average overall mshr miss latency
system.l3.overall_avg_mshr_miss_latency::cpu0.data 50770.498178                       # average overall mshr miss latency
system.l3.overall_avg_mshr_miss_latency::cpu1.inst 51707.338564                       # average overall mshr miss latency
system.l3.overall_avg_mshr_miss_latency::cpu1.data 51210.047283                       # average overall mshr miss latency
system.l3.overall_avg_mshr_miss_latency::cpu2.inst 50599.557477                       # average overall mshr miss latency
system.l3.overall_avg_mshr_miss_latency::cpu2.data 52243.031700                       # average overall mshr miss latency
system.l3.overall_avg_mshr_miss_latency::cpu3.inst 51840.885456                       # average overall mshr miss latency
system.l3.overall_avg_mshr_miss_latency::cpu3.data 50832.460367                       # average overall mshr miss latency
system.l3.overall_avg_mshr_miss_latency::total 51335.761790                       # average overall mshr miss latency
system.membus.snoop_filter.tot_requests         30343                       # Total number of requests made to the snoop filter.
system.membus.snoop_filter.hit_single_requests            0                       # Number of requests hitting in the snoop filter with a single holder of the requested data.
system.membus.snoop_filter.hit_multi_requests            0                       # Number of requests hitting in the snoop filter with multiple (>1) holders of the requested data.
system.membus.snoop_filter.tot_snoops               0                       # Total number of snoops made to the snoop filter.
system.membus.snoop_filter.hit_single_snoops            0                       # Number of snoops hitting in the snoop filter with a single holder of the requested data.
system.membus.snoop_filter.hit_multi_snoops            0                       # Number of snoops hitting in the snoop filter with multiple (>1) holders of the requested data.
system.membus.pwrStateResidencyTicks::UNDEFINED   5157112059                       # Cumulative time (in ticks) in various power states
system.membus.trans_dist::ReadResp              20810                       # Transaction distribution
system.membus.trans_dist::ReadExReq              9533                       # Transaction distribution
system.membus.trans_dist::ReadExResp             9533                       # Transaction distribution
system.membus.trans_dist::ReadSharedReq         20810                       # Transaction distribution
system.membus.pkt_count_system.l3.mem_side::system.mem_ctrls.port        60686                       # Packet count per connected master and slave (bytes)
system.membus.pkt_count_system.l3.mem_side::total        60686                       # Packet count per connected master and slave (bytes)
system.membus.pkt_count::total                  60686                       # Packet count per connected master and slave (bytes)
system.membus.pkt_size_system.l3.mem_side::system.mem_ctrls.port      1941952                       # Cumulative packet size per connected master and slave (bytes)
system.membus.pkt_size_system.l3.mem_side::total      1941952                       # Cumulative packet size per connected master and slave (bytes)
system.membus.pkt_size::total                 1941952                       # Cumulative packet size per connected master and slave (bytes)
system.membus.snoops                                0                       # Total snoops (count)
system.membus.snoopTraffic                          0                       # Total snoop traffic (bytes)
system.membus.snoop_fanout::samples             30343                       # Request fanout histogram
system.membus.snoop_fanout::mean                    0                       # Request fanout histogram
system.membus.snoop_fanout::stdev                   0                       # Request fanout histogram
system.membus.snoop_fanout::underflows              0      0.00%      0.00% # Request fanout histogram
system.membus.snoop_fanout::0                   30343    100.00%    100.00% # Request fanout histogram
system.membus.snoop_fanout::1                       0      0.00%    100.00% # Request fanout histogram
system.membus.snoop_fanout::overflows               0      0.00%    100.00% # Request fanout histogram
system.membus.snoop_fanout::min_value               0                       # Request fanout histogram
system.membus.snoop_fanout::max_value               0                       # Request fanout histogram
system.membus.snoop_fanout::total               30343                       # Request fanout histogram
system.membus.reqLayer8.occupancy            39489745                       # Layer occupancy (ticks)
system.membus.reqLayer8.utilization               0.8                       # Layer utilization (%)
system.membus.respLayer1.occupancy          162834915                       # Layer occupancy (ticks)
system.membus.respLayer1.utilization              3.2                       # Layer utilization (%)
system.tol3bus.snoop_filter.tot_requests        50659                       # Total number of requests made to the snoop filter.
system.tol3bus.snoop_filter.hit_single_requests        17120                       # Number of requests hitting in the snoop filter with a single holder of the requested data.
system.tol3bus.snoop_filter.hit_multi_requests            0                       # Number of requests hitting in the snoop filter with multiple (>1) holders of the requested data.
system.tol3bus.snoop_filter.tot_snoops              0                       # Total number of snoops made to the snoop filter.
system.tol3bus.snoop_filter.hit_single_snoops            0                       # Number of snoops hitting in the snoop filter with a single holder of the requested data.
system.tol3bus.snoop_filter.hit_multi_snoops            0                       # Number of snoops hitting in the snoop filter with multiple (>1) holders of the requested data.
system.tol3bus.pwrStateResidencyTicks::UNDEFINED   5157112059                       # Cumulative time (in ticks) in various power states
system.tol3bus.trans_dist::ReadResp             24008                       # Transaction distribution
system.tol3bus.trans_dist::WritebackDirty         5674                       # Transaction distribution
system.tol3bus.trans_dist::CleanEvict           11382                       # Transaction distribution
system.tol3bus.trans_dist::UpgradeReq              13                       # Transaction distribution
system.tol3bus.trans_dist::UpgradeResp             13                       # Transaction distribution
system.tol3bus.trans_dist::ReadExReq             9582                       # Transaction distribution
system.tol3bus.trans_dist::ReadExResp            9582                       # Transaction distribution
system.tol3bus.trans_dist::ReadSharedReq        24008                       # Transaction distribution
system.tol3bus.pkt_count_system.cpu0.l2cache.mem_side::system.l3.cpu_side        20948                       # Packet count per connected master and slave (bytes)
system.tol3bus.pkt_count_system.cpu1.l2cache.mem_side::system.l3.cpu_side        21066                       # Packet count per connected master and slave (bytes)
system.tol3bus.pkt_count_system.cpu2.l2cache.mem_side::system.l3.cpu_side        21155                       # Packet count per connected master and slave (bytes)
system.tol3bus.pkt_count_system.cpu3.l2cache.mem_side::system.l3.cpu_side        21093                       # Packet count per connected master and slave (bytes)
system.tol3bus.pkt_count::total                 84262                       # Packet count per connected master and slave (bytes)
system.tol3bus.pkt_size_system.cpu0.l2cache.mem_side::system.l3.cpu_side       628096                       # Cumulative packet size per connected master and slave (bytes)
system.tol3bus.pkt_size_system.cpu1.l2cache.mem_side::system.l3.cpu_side       627200                       # Cumulative packet size per connected master and slave (bytes)
system.tol3bus.pkt_size_system.cpu2.l2cache.mem_side::system.l3.cpu_side       627136                       # Cumulative packet size per connected master and slave (bytes)
system.tol3bus.pkt_size_system.cpu3.l2cache.mem_side::system.l3.cpu_side       630464                       # Cumulative packet size per connected master and slave (bytes)
system.tol3bus.pkt_size::total                2512896                       # Cumulative packet size per connected master and slave (bytes)
system.tol3bus.snoops                               0                       # Total snoops (count)
system.tol3bus.snoopTraffic                         0                       # Total snoop traffic (bytes)
system.tol3bus.snoop_fanout::samples            33603                       # Request fanout histogram
system.tol3bus.snoop_fanout::mean                   0                       # Request fanout histogram
system.tol3bus.snoop_fanout::stdev                  0                       # Request fanout histogram
system.tol3bus.snoop_fanout::underflows             0      0.00%      0.00% # Request fanout histogram
system.tol3bus.snoop_fanout::0                  33603    100.00%    100.00% # Request fanout histogram
system.tol3bus.snoop_fanout::1                      0      0.00%    100.00% # Request fanout histogram
system.tol3bus.snoop_fanout::2                      0      0.00%    100.00% # Request fanout histogram
system.tol3bus.snoop_fanout::3                      0      0.00%    100.00% # Request fanout histogram
system.tol3bus.snoop_fanout::4                      0      0.00%    100.00% # Request fanout histogram
system.tol3bus.snoop_fanout::overflows              0      0.00%    100.00% # Request fanout histogram
system.tol3bus.snoop_fanout::min_value              0                       # Request fanout histogram
system.tol3bus.snoop_fanout::max_value              0                       # Request fanout histogram
system.tol3bus.snoop_fanout::total              33603                       # Request fanout histogram
system.tol3bus.reqLayer0.occupancy           79822297                       # Layer occupancy (ticks)
system.tol3bus.reqLayer0.utilization              1.5                       # Layer utilization (%)
system.tol3bus.respLayer0.occupancy          26610472                       # Layer occupancy (ticks)
system.tol3bus.respLayer0.utilization             0.5                       # Layer utilization (%)
system.tol3bus.respLayer1.occupancy          26792430                       # Layer occupancy (ticks)
system.tol3bus.respLayer1.utilization             0.5                       # Layer utilization (%)
system.tol3bus.respLayer2.occupancy          26924652                       # Layer occupancy (ticks)
system.tol3bus.respLayer2.utilization             0.5                       # Layer utilization (%)
system.tol3bus.respLayer3.occupancy          26792213                       # Layer occupancy (ticks)
system.tol3bus.respLayer3.utilization             0.5                       # Layer utilization (%)

---------- End Simulation Statistics   ----------
