
---------- Begin Simulation Statistics ----------
sim_seconds                                  0.085619                       # Number of seconds simulated
sim_ticks                                 85618925037                       # Number of ticks simulated
final_tick                               148527172152                       # Number of ticks from beginning of simulation (restored from checkpoints and never reset)
sim_freq                                 1000000000000                       # Frequency of simulated ticks
host_inst_rate                                  25027                       # Simulator instruction rate (inst/s)
host_op_rate                                    34348                       # Simulator op (including micro ops) rate (op/s)
host_tick_rate                                1788635                       # Simulator tick rate (ticks/s)
host_mem_usage                               33909336                       # Number of bytes of host memory used
host_seconds                                 47868.30                       # Real time elapsed on the host
sim_insts                                  1198016912                       # Number of instructions simulated
sim_ops                                    1644158359                       # Number of ops (including micro ops) simulated
system.voltage_domain.voltage                       1                       # Voltage in Volts
system.clk_domain.clock                          1000                       # Clock period in ticks
system.mem_ctrls.pwrStateResidencyTicks::UNDEFINED 148527172152                       # Cumulative time (in ticks) in various power states
system.mem_ctrls.bytes_read::switch_cpus0.inst         4032                       # Number of bytes read from this memory
system.mem_ctrls.bytes_read::switch_cpus0.data    144991232                       # Number of bytes read from this memory
system.mem_ctrls.bytes_read::switch_cpus1.inst         4160                       # Number of bytes read from this memory
system.mem_ctrls.bytes_read::switch_cpus1.data    144159040                       # Number of bytes read from this memory
system.mem_ctrls.bytes_read::switch_cpus2.inst         3584                       # Number of bytes read from this memory
system.mem_ctrls.bytes_read::switch_cpus2.data    144799488                       # Number of bytes read from this memory
system.mem_ctrls.bytes_read::switch_cpus3.inst         4096                       # Number of bytes read from this memory
system.mem_ctrls.bytes_read::switch_cpus3.data    143930944                       # Number of bytes read from this memory
system.mem_ctrls.bytes_read::total          577896576                       # Number of bytes read from this memory
system.mem_ctrls.bytes_inst_read::switch_cpus0.inst         4032                       # Number of instructions bytes read from this memory
system.mem_ctrls.bytes_inst_read::switch_cpus1.inst         4160                       # Number of instructions bytes read from this memory
system.mem_ctrls.bytes_inst_read::switch_cpus2.inst         3584                       # Number of instructions bytes read from this memory
system.mem_ctrls.bytes_inst_read::switch_cpus3.inst         4096                       # Number of instructions bytes read from this memory
system.mem_ctrls.bytes_inst_read::total         15872                       # Number of instructions bytes read from this memory
system.mem_ctrls.bytes_written::writebacks    132004544                       # Number of bytes written to this memory
system.mem_ctrls.bytes_written::total       132004544                       # Number of bytes written to this memory
system.mem_ctrls.num_reads::switch_cpus0.inst           63                       # Number of read requests responded to by this memory
system.mem_ctrls.num_reads::switch_cpus0.data      2265488                       # Number of read requests responded to by this memory
system.mem_ctrls.num_reads::switch_cpus1.inst           65                       # Number of read requests responded to by this memory
system.mem_ctrls.num_reads::switch_cpus1.data      2252485                       # Number of read requests responded to by this memory
system.mem_ctrls.num_reads::switch_cpus2.inst           56                       # Number of read requests responded to by this memory
system.mem_ctrls.num_reads::switch_cpus2.data      2262492                       # Number of read requests responded to by this memory
system.mem_ctrls.num_reads::switch_cpus3.inst           64                       # Number of read requests responded to by this memory
system.mem_ctrls.num_reads::switch_cpus3.data      2248921                       # Number of read requests responded to by this memory
system.mem_ctrls.num_reads::total             9029634                       # Number of read requests responded to by this memory
system.mem_ctrls.num_writes::writebacks       2062571                       # Number of write requests responded to by this memory
system.mem_ctrls.num_writes::total            2062571                       # Number of write requests responded to by this memory
system.mem_ctrls.bw_read::switch_cpus0.inst        47092                       # Total read bandwidth from this memory (bytes/s)
system.mem_ctrls.bw_read::switch_cpus0.data   1693448405                       # Total read bandwidth from this memory (bytes/s)
system.mem_ctrls.bw_read::switch_cpus1.inst        48587                       # Total read bandwidth from this memory (bytes/s)
system.mem_ctrls.bw_read::switch_cpus1.data   1683728684                       # Total read bandwidth from this memory (bytes/s)
system.mem_ctrls.bw_read::switch_cpus2.inst        41860                       # Total read bandwidth from this memory (bytes/s)
system.mem_ctrls.bw_read::switch_cpus2.data   1691208900                       # Total read bandwidth from this memory (bytes/s)
system.mem_ctrls.bw_read::switch_cpus3.inst        47840                       # Total read bandwidth from this memory (bytes/s)
system.mem_ctrls.bw_read::switch_cpus3.data   1681064600                       # Total read bandwidth from this memory (bytes/s)
system.mem_ctrls.bw_read::total            6749635968                       # Total read bandwidth from this memory (bytes/s)
system.mem_ctrls.bw_inst_read::switch_cpus0.inst        47092                       # Instruction read bandwidth from this memory (bytes/s)
system.mem_ctrls.bw_inst_read::switch_cpus1.inst        48587                       # Instruction read bandwidth from this memory (bytes/s)
system.mem_ctrls.bw_inst_read::switch_cpus2.inst        41860                       # Instruction read bandwidth from this memory (bytes/s)
system.mem_ctrls.bw_inst_read::switch_cpus3.inst        47840                       # Instruction read bandwidth from this memory (bytes/s)
system.mem_ctrls.bw_inst_read::total           185380                       # Instruction read bandwidth from this memory (bytes/s)
system.mem_ctrls.bw_write::writebacks      1541768294                       # Write bandwidth from this memory (bytes/s)
system.mem_ctrls.bw_write::total           1541768294                       # Write bandwidth from this memory (bytes/s)
system.mem_ctrls.bw_total::writebacks      1541768294                       # Total bandwidth to/from this memory (bytes/s)
system.mem_ctrls.bw_total::switch_cpus0.inst        47092                       # Total bandwidth to/from this memory (bytes/s)
system.mem_ctrls.bw_total::switch_cpus0.data   1693448405                       # Total bandwidth to/from this memory (bytes/s)
system.mem_ctrls.bw_total::switch_cpus1.inst        48587                       # Total bandwidth to/from this memory (bytes/s)
system.mem_ctrls.bw_total::switch_cpus1.data   1683728684                       # Total bandwidth to/from this memory (bytes/s)
system.mem_ctrls.bw_total::switch_cpus2.inst        41860                       # Total bandwidth to/from this memory (bytes/s)
system.mem_ctrls.bw_total::switch_cpus2.data   1691208900                       # Total bandwidth to/from this memory (bytes/s)
system.mem_ctrls.bw_total::switch_cpus3.inst        47840                       # Total bandwidth to/from this memory (bytes/s)
system.mem_ctrls.bw_total::switch_cpus3.data   1681064600                       # Total bandwidth to/from this memory (bytes/s)
system.mem_ctrls.bw_total::total           8291404262                       # Total bandwidth to/from this memory (bytes/s)
system.pwrStateResidencyTicks::UNDEFINED 148527172152                       # Cumulative time (in ticks) in various power states
system.cpu_voltage_domain.voltage                   1                       # Voltage in Volts
system.cpu_clk_domain.clock                       333                       # Clock period in ticks
system.cpu0.dtb.walker.pwrStateResidencyTicks::UNDEFINED 148527172152                       # Cumulative time (in ticks) in various power states
system.cpu0.dtb.rdAccesses                          0                       # TLB accesses on read requests
system.cpu0.dtb.wrAccesses                          0                       # TLB accesses on write requests
system.cpu0.dtb.rdMisses                            0                       # TLB misses on read requests
system.cpu0.dtb.wrMisses                            0                       # TLB misses on write requests
system.cpu0.apic_clk_domain.clock                5328                       # Clock period in ticks
system.cpu0.interrupts.pwrStateResidencyTicks::UNDEFINED 148527172152                       # Cumulative time (in ticks) in various power states
system.cpu0.itb.walker.pwrStateResidencyTicks::UNDEFINED 148527172152                       # Cumulative time (in ticks) in various power states
system.cpu0.itb.rdAccesses                          0                       # TLB accesses on read requests
system.cpu0.itb.wrAccesses                          0                       # TLB accesses on write requests
system.cpu0.itb.rdMisses                            0                       # TLB misses on read requests
system.cpu0.itb.wrMisses                            0                       # TLB misses on write requests
system.cpu0.workload.numSyscalls                    0                       # Number of system calls
system.cpu0.numPwrStateTransitions                  1                       # Number of power state transitions
system.cpu0.pwrStateResidencyTicks::ON    62908247115                       # Cumulative time (in ticks) in various power states
system.cpu0.pwrStateResidencyTicks::OFF   85618925037                       # Cumulative time (in ticks) in various power states
system.cpu0.numCycles                               0                       # number of cpu cycles simulated
system.cpu0.numWorkItemsStarted                     0                       # number of work items this cpu started
system.cpu0.numWorkItemsCompleted                   0                       # number of work items this cpu completed
system.cpu0.committedInsts                          0                       # Number of instructions committed
system.cpu0.committedOps                            0                       # Number of ops (including micro ops) committed
system.cpu0.num_int_alu_accesses                    0                       # Number of integer alu accesses
system.cpu0.num_fp_alu_accesses                     0                       # Number of float alu accesses
system.cpu0.num_vec_alu_accesses                    0                       # Number of vector alu accesses
system.cpu0.num_func_calls                          0                       # number of times a function call or return occured
system.cpu0.num_conditional_control_insts            0                       # number of instructions that are conditional controls
system.cpu0.num_int_insts                           0                       # number of integer instructions
system.cpu0.num_fp_insts                            0                       # number of float instructions
system.cpu0.num_vec_insts                           0                       # number of vector instructions
system.cpu0.num_int_register_reads                  0                       # number of times the integer registers were read
system.cpu0.num_int_register_writes                 0                       # number of times the integer registers were written
system.cpu0.num_fp_register_reads                   0                       # number of times the floating registers were read
system.cpu0.num_fp_register_writes                  0                       # number of times the floating registers were written
system.cpu0.num_vec_register_reads                  0                       # number of times the vector registers were read
system.cpu0.num_vec_register_writes                 0                       # number of times the vector registers were written
system.cpu0.num_mem_refs                            0                       # number of memory refs
system.cpu0.num_load_insts                          0                       # Number of load instructions
system.cpu0.num_store_insts                         0                       # Number of store instructions
system.cpu0.num_idle_cycles                         0                       # Number of idle cycles
system.cpu0.num_busy_cycles                         0                       # Number of busy cycles
system.cpu0.not_idle_fraction                       1                       # Percentage of non-idle cycles
system.cpu0.idle_fraction                           0                       # Percentage of idle cycles
system.cpu0.op_class::No_OpClass                    0                       # Class of executed instruction
system.cpu0.op_class::IntAlu                        0                       # Class of executed instruction
system.cpu0.op_class::IntMult                       0                       # Class of executed instruction
system.cpu0.op_class::IntDiv                        0                       # Class of executed instruction
system.cpu0.op_class::FloatAdd                      0                       # Class of executed instruction
system.cpu0.op_class::FloatCmp                      0                       # Class of executed instruction
system.cpu0.op_class::FloatCvt                      0                       # Class of executed instruction
system.cpu0.op_class::FloatMult                     0                       # Class of executed instruction
system.cpu0.op_class::FloatMultAcc                  0                       # Class of executed instruction
system.cpu0.op_class::FloatDiv                      0                       # Class of executed instruction
system.cpu0.op_class::FloatMisc                     0                       # Class of executed instruction
system.cpu0.op_class::FloatSqrt                     0                       # Class of executed instruction
system.cpu0.op_class::SimdAdd                       0                       # Class of executed instruction
system.cpu0.op_class::SimdAddAcc                    0                       # Class of executed instruction
system.cpu0.op_class::SimdAlu                       0                       # Class of executed instruction
system.cpu0.op_class::SimdCmp                       0                       # Class of executed instruction
system.cpu0.op_class::SimdCvt                       0                       # Class of executed instruction
system.cpu0.op_class::SimdMisc                      0                       # Class of executed instruction
system.cpu0.op_class::SimdMult                      0                       # Class of executed instruction
system.cpu0.op_class::SimdMultAcc                   0                       # Class of executed instruction
system.cpu0.op_class::SimdShift                     0                       # Class of executed instruction
system.cpu0.op_class::SimdShiftAcc                  0                       # Class of executed instruction
system.cpu0.op_class::SimdSqrt                      0                       # Class of executed instruction
system.cpu0.op_class::SimdFloatAdd                  0                       # Class of executed instruction
system.cpu0.op_class::SimdFloatAlu                  0                       # Class of executed instruction
system.cpu0.op_class::SimdFloatCmp                  0                       # Class of executed instruction
system.cpu0.op_class::SimdFloatCvt                  0                       # Class of executed instruction
system.cpu0.op_class::SimdFloatDiv                  0                       # Class of executed instruction
system.cpu0.op_class::SimdFloatMisc                 0                       # Class of executed instruction
system.cpu0.op_class::SimdFloatMult                 0                       # Class of executed instruction
system.cpu0.op_class::SimdFloatMultAcc              0                       # Class of executed instruction
system.cpu0.op_class::SimdFloatSqrt                 0                       # Class of executed instruction
system.cpu0.op_class::MemRead                       0                       # Class of executed instruction
system.cpu0.op_class::MemWrite                      0                       # Class of executed instruction
system.cpu0.op_class::FloatMemRead                  0                       # Class of executed instruction
system.cpu0.op_class::FloatMemWrite                 0                       # Class of executed instruction
system.cpu0.op_class::IprAccess                     0                       # Class of executed instruction
system.cpu0.op_class::InstPrefetch                  0                       # Class of executed instruction
system.cpu0.op_class::total                         0                       # Class of executed instruction
system.cpu0.dcache.tags.pwrStateResidencyTicks::UNDEFINED 148527172152                       # Cumulative time (in ticks) in various power states
system.cpu0.dcache.tags.replacements          3188672                       # number of replacements
system.cpu0.dcache.tags.tagsinuse                 512                       # Cycle average of tags in use
system.cpu0.dcache.tags.total_refs           48301286                       # Total number of references to valid blocks.
system.cpu0.dcache.tags.sampled_refs          3189184                       # Sample count of references to valid blocks.
system.cpu0.dcache.tags.avg_refs            15.145343                       # Average number of references to valid blocks.
system.cpu0.dcache.tags.warmup_cycle                0                       # Cycle when the warmup percentage was hit.
system.cpu0.dcache.tags.occ_blocks::cpu0.data     0.474920                       # Average occupied blocks per requestor
system.cpu0.dcache.tags.occ_blocks::switch_cpus0.data   511.525080                       # Average occupied blocks per requestor
system.cpu0.dcache.tags.occ_percent::cpu0.data     0.000928                       # Average percentage of cache occupancy
system.cpu0.dcache.tags.occ_percent::switch_cpus0.data     0.999072                       # Average percentage of cache occupancy
system.cpu0.dcache.tags.occ_percent::total            1                       # Average percentage of cache occupancy
system.cpu0.dcache.tags.occ_task_id_blocks::1024          512                       # Occupied blocks per task id
system.cpu0.dcache.tags.age_task_id_blocks_1024::0          163                       # Occupied blocks per task id
system.cpu0.dcache.tags.age_task_id_blocks_1024::1          349                       # Occupied blocks per task id
system.cpu0.dcache.tags.occ_task_id_percent::1024            1                       # Percentage of cache occupancy per task id
system.cpu0.dcache.tags.tag_accesses        497411792                       # Number of tag accesses
system.cpu0.dcache.tags.data_accesses       497411792                       # Number of data accesses
system.cpu0.dcache.pwrStateResidencyTicks::UNDEFINED 148527172152                       # Cumulative time (in ticks) in various power states
system.cpu0.dcache.ReadReq_hits::switch_cpus0.data     35883648                       # number of ReadReq hits
system.cpu0.dcache.ReadReq_hits::total       35883648                       # number of ReadReq hits
system.cpu0.dcache.WriteReq_hits::switch_cpus0.data     12027261                       # number of WriteReq hits
system.cpu0.dcache.WriteReq_hits::total      12027261                       # number of WriteReq hits
system.cpu0.dcache.demand_hits::switch_cpus0.data     47910909                       # number of demand (read+write) hits
system.cpu0.dcache.demand_hits::total        47910909                       # number of demand (read+write) hits
system.cpu0.dcache.overall_hits::switch_cpus0.data     47910909                       # number of overall hits
system.cpu0.dcache.overall_hits::total       47910909                       # number of overall hits
system.cpu0.dcache.ReadReq_misses::switch_cpus0.data     12918341                       # number of ReadReq misses
system.cpu0.dcache.ReadReq_misses::total     12918341                       # number of ReadReq misses
system.cpu0.dcache.WriteReq_misses::switch_cpus0.data       948640                       # number of WriteReq misses
system.cpu0.dcache.WriteReq_misses::total       948640                       # number of WriteReq misses
system.cpu0.dcache.demand_misses::switch_cpus0.data     13866981                       # number of demand (read+write) misses
system.cpu0.dcache.demand_misses::total      13866981                       # number of demand (read+write) misses
system.cpu0.dcache.overall_misses::switch_cpus0.data     13866981                       # number of overall misses
system.cpu0.dcache.overall_misses::total     13866981                       # number of overall misses
system.cpu0.dcache.ReadReq_miss_latency::switch_cpus0.data 585071525817                       # number of ReadReq miss cycles
system.cpu0.dcache.ReadReq_miss_latency::total 585071525817                       # number of ReadReq miss cycles
system.cpu0.dcache.WriteReq_miss_latency::switch_cpus0.data  22295506993                       # number of WriteReq miss cycles
system.cpu0.dcache.WriteReq_miss_latency::total  22295506993                       # number of WriteReq miss cycles
system.cpu0.dcache.demand_miss_latency::switch_cpus0.data 607367032810                       # number of demand (read+write) miss cycles
system.cpu0.dcache.demand_miss_latency::total 607367032810                       # number of demand (read+write) miss cycles
system.cpu0.dcache.overall_miss_latency::switch_cpus0.data 607367032810                       # number of overall miss cycles
system.cpu0.dcache.overall_miss_latency::total 607367032810                       # number of overall miss cycles
system.cpu0.dcache.ReadReq_accesses::switch_cpus0.data     48801989                       # number of ReadReq accesses(hits+misses)
system.cpu0.dcache.ReadReq_accesses::total     48801989                       # number of ReadReq accesses(hits+misses)
system.cpu0.dcache.WriteReq_accesses::switch_cpus0.data     12975901                       # number of WriteReq accesses(hits+misses)
system.cpu0.dcache.WriteReq_accesses::total     12975901                       # number of WriteReq accesses(hits+misses)
system.cpu0.dcache.demand_accesses::switch_cpus0.data     61777890                       # number of demand (read+write) accesses
system.cpu0.dcache.demand_accesses::total     61777890                       # number of demand (read+write) accesses
system.cpu0.dcache.overall_accesses::switch_cpus0.data     61777890                       # number of overall (read+write) accesses
system.cpu0.dcache.overall_accesses::total     61777890                       # number of overall (read+write) accesses
system.cpu0.dcache.ReadReq_miss_rate::switch_cpus0.data     0.264709                       # miss rate for ReadReq accesses
system.cpu0.dcache.ReadReq_miss_rate::total     0.264709                       # miss rate for ReadReq accesses
system.cpu0.dcache.WriteReq_miss_rate::switch_cpus0.data     0.073108                       # miss rate for WriteReq accesses
system.cpu0.dcache.WriteReq_miss_rate::total     0.073108                       # miss rate for WriteReq accesses
system.cpu0.dcache.demand_miss_rate::switch_cpus0.data     0.224465                       # miss rate for demand accesses
system.cpu0.dcache.demand_miss_rate::total     0.224465                       # miss rate for demand accesses
system.cpu0.dcache.overall_miss_rate::switch_cpus0.data     0.224465                       # miss rate for overall accesses
system.cpu0.dcache.overall_miss_rate::total     0.224465                       # miss rate for overall accesses
system.cpu0.dcache.ReadReq_avg_miss_latency::switch_cpus0.data 45289.989312                       # average ReadReq miss latency
system.cpu0.dcache.ReadReq_avg_miss_latency::total 45289.989312                       # average ReadReq miss latency
system.cpu0.dcache.WriteReq_avg_miss_latency::switch_cpus0.data 23502.600558                       # average WriteReq miss latency
system.cpu0.dcache.WriteReq_avg_miss_latency::total 23502.600558                       # average WriteReq miss latency
system.cpu0.dcache.demand_avg_miss_latency::switch_cpus0.data 43799.514315                       # average overall miss latency
system.cpu0.dcache.demand_avg_miss_latency::total 43799.514315                       # average overall miss latency
system.cpu0.dcache.overall_avg_miss_latency::switch_cpus0.data 43799.514315                       # average overall miss latency
system.cpu0.dcache.overall_avg_miss_latency::total 43799.514315                       # average overall miss latency
system.cpu0.dcache.blocked_cycles::no_mshrs     36349941                       # number of cycles access was blocked
system.cpu0.dcache.blocked_cycles::no_targets            0                       # number of cycles access was blocked
system.cpu0.dcache.blocked::no_mshrs           864496                       # number of cycles access was blocked
system.cpu0.dcache.blocked::no_targets              0                       # number of cycles access was blocked
system.cpu0.dcache.avg_blocked_cycles::no_mshrs    42.047553                       # average number of cycles each access was blocked
system.cpu0.dcache.avg_blocked_cycles::no_targets          nan                       # average number of cycles each access was blocked
system.cpu0.dcache.writebacks::writebacks      1271156                       # number of writebacks
system.cpu0.dcache.writebacks::total          1271156                       # number of writebacks
system.cpu0.dcache.ReadReq_mshr_hits::switch_cpus0.data     10361131                       # number of ReadReq MSHR hits
system.cpu0.dcache.ReadReq_mshr_hits::total     10361131                       # number of ReadReq MSHR hits
system.cpu0.dcache.WriteReq_mshr_hits::switch_cpus0.data            7                       # number of WriteReq MSHR hits
system.cpu0.dcache.WriteReq_mshr_hits::total            7                       # number of WriteReq MSHR hits
system.cpu0.dcache.demand_mshr_hits::switch_cpus0.data     10361138                       # number of demand (read+write) MSHR hits
system.cpu0.dcache.demand_mshr_hits::total     10361138                       # number of demand (read+write) MSHR hits
system.cpu0.dcache.overall_mshr_hits::switch_cpus0.data     10361138                       # number of overall MSHR hits
system.cpu0.dcache.overall_mshr_hits::total     10361138                       # number of overall MSHR hits
system.cpu0.dcache.ReadReq_mshr_misses::switch_cpus0.data      2557210                       # number of ReadReq MSHR misses
system.cpu0.dcache.ReadReq_mshr_misses::total      2557210                       # number of ReadReq MSHR misses
system.cpu0.dcache.WriteReq_mshr_misses::switch_cpus0.data       948633                       # number of WriteReq MSHR misses
system.cpu0.dcache.WriteReq_mshr_misses::total       948633                       # number of WriteReq MSHR misses
system.cpu0.dcache.demand_mshr_misses::switch_cpus0.data      3505843                       # number of demand (read+write) MSHR misses
system.cpu0.dcache.demand_mshr_misses::total      3505843                       # number of demand (read+write) MSHR misses
system.cpu0.dcache.overall_mshr_misses::switch_cpus0.data      3505843                       # number of overall MSHR misses
system.cpu0.dcache.overall_mshr_misses::total      3505843                       # number of overall MSHR misses
system.cpu0.dcache.ReadReq_mshr_miss_latency::switch_cpus0.data 137628523710                       # number of ReadReq MSHR miss cycles
system.cpu0.dcache.ReadReq_mshr_miss_latency::total 137628523710                       # number of ReadReq MSHR miss cycles
system.cpu0.dcache.WriteReq_mshr_miss_latency::switch_cpus0.data  21663288512                       # number of WriteReq MSHR miss cycles
system.cpu0.dcache.WriteReq_mshr_miss_latency::total  21663288512                       # number of WriteReq MSHR miss cycles
system.cpu0.dcache.demand_mshr_miss_latency::switch_cpus0.data 159291812222                       # number of demand (read+write) MSHR miss cycles
system.cpu0.dcache.demand_mshr_miss_latency::total 159291812222                       # number of demand (read+write) MSHR miss cycles
system.cpu0.dcache.overall_mshr_miss_latency::switch_cpus0.data 159291812222                       # number of overall MSHR miss cycles
system.cpu0.dcache.overall_mshr_miss_latency::total 159291812222                       # number of overall MSHR miss cycles
system.cpu0.dcache.ReadReq_mshr_miss_rate::switch_cpus0.data     0.052400                       # mshr miss rate for ReadReq accesses
system.cpu0.dcache.ReadReq_mshr_miss_rate::total     0.052400                       # mshr miss rate for ReadReq accesses
system.cpu0.dcache.WriteReq_mshr_miss_rate::switch_cpus0.data     0.073107                       # mshr miss rate for WriteReq accesses
system.cpu0.dcache.WriteReq_mshr_miss_rate::total     0.073107                       # mshr miss rate for WriteReq accesses
system.cpu0.dcache.demand_mshr_miss_rate::switch_cpus0.data     0.056749                       # mshr miss rate for demand accesses
system.cpu0.dcache.demand_mshr_miss_rate::total     0.056749                       # mshr miss rate for demand accesses
system.cpu0.dcache.overall_mshr_miss_rate::switch_cpus0.data     0.056749                       # mshr miss rate for overall accesses
system.cpu0.dcache.overall_mshr_miss_rate::total     0.056749                       # mshr miss rate for overall accesses
system.cpu0.dcache.ReadReq_avg_mshr_miss_latency::switch_cpus0.data 53819.797244                       # average ReadReq mshr miss latency
system.cpu0.dcache.ReadReq_avg_mshr_miss_latency::total 53819.797244                       # average ReadReq mshr miss latency
system.cpu0.dcache.WriteReq_avg_mshr_miss_latency::switch_cpus0.data 22836.321857                       # average WriteReq mshr miss latency
system.cpu0.dcache.WriteReq_avg_mshr_miss_latency::total 22836.321857                       # average WriteReq mshr miss latency
system.cpu0.dcache.demand_avg_mshr_miss_latency::switch_cpus0.data 45436.094036                       # average overall mshr miss latency
system.cpu0.dcache.demand_avg_mshr_miss_latency::total 45436.094036                       # average overall mshr miss latency
system.cpu0.dcache.overall_avg_mshr_miss_latency::switch_cpus0.data 45436.094036                       # average overall mshr miss latency
system.cpu0.dcache.overall_avg_mshr_miss_latency::total 45436.094036                       # average overall mshr miss latency
system.cpu0.dtb_walker_cache.tags.pwrStateResidencyTicks::UNDEFINED 148527172152                       # Cumulative time (in ticks) in various power states
system.cpu0.dtb_walker_cache.tags.replacements            0                       # number of replacements
system.cpu0.dtb_walker_cache.tags.tagsinuse            0                       # Cycle average of tags in use
system.cpu0.dtb_walker_cache.tags.total_refs            0                       # Total number of references to valid blocks.
system.cpu0.dtb_walker_cache.tags.sampled_refs            0                       # Sample count of references to valid blocks.
system.cpu0.dtb_walker_cache.tags.avg_refs          nan                       # Average number of references to valid blocks.
system.cpu0.dtb_walker_cache.tags.warmup_cycle            0                       # Cycle when the warmup percentage was hit.
system.cpu0.dtb_walker_cache.tags.tag_accesses            0                       # Number of tag accesses
system.cpu0.dtb_walker_cache.tags.data_accesses            0                       # Number of data accesses
system.cpu0.dtb_walker_cache.pwrStateResidencyTicks::UNDEFINED 148527172152                       # Cumulative time (in ticks) in various power states
system.cpu0.dtb_walker_cache.blocked_cycles::no_mshrs            0                       # number of cycles access was blocked
system.cpu0.dtb_walker_cache.blocked_cycles::no_targets            0                       # number of cycles access was blocked
system.cpu0.dtb_walker_cache.blocked::no_mshrs            0                       # number of cycles access was blocked
system.cpu0.dtb_walker_cache.blocked::no_targets            0                       # number of cycles access was blocked
system.cpu0.dtb_walker_cache.avg_blocked_cycles::no_mshrs          nan                       # average number of cycles each access was blocked
system.cpu0.dtb_walker_cache.avg_blocked_cycles::no_targets          nan                       # average number of cycles each access was blocked
system.cpu0.icache.tags.pwrStateResidencyTicks::UNDEFINED 148527172152                       # Cumulative time (in ticks) in various power states
system.cpu0.icache.tags.replacements               63                       # number of replacements
system.cpu0.icache.tags.tagsinuse                 512                       # Cycle average of tags in use
system.cpu0.icache.tags.total_refs          142073475                       # Total number of references to valid blocks.
system.cpu0.icache.tags.sampled_refs              575                       # Sample count of references to valid blocks.
system.cpu0.icache.tags.avg_refs         247084.304348                       # Average number of references to valid blocks.
system.cpu0.icache.tags.warmup_cycle                0                       # Cycle when the warmup percentage was hit.
system.cpu0.icache.tags.occ_blocks::cpu0.inst   460.804104                       # Average occupied blocks per requestor
system.cpu0.icache.tags.occ_blocks::switch_cpus0.inst    51.195896                       # Average occupied blocks per requestor
system.cpu0.icache.tags.occ_percent::cpu0.inst     0.900008                       # Average percentage of cache occupancy
system.cpu0.icache.tags.occ_percent::switch_cpus0.inst     0.099992                       # Average percentage of cache occupancy
system.cpu0.icache.tags.occ_percent::total            1                       # Average percentage of cache occupancy
system.cpu0.icache.tags.occ_task_id_blocks::1024          512                       # Occupied blocks per task id
system.cpu0.icache.tags.age_task_id_blocks_1024::3            1                       # Occupied blocks per task id
system.cpu0.icache.tags.age_task_id_blocks_1024::4          511                       # Occupied blocks per task id
system.cpu0.icache.tags.occ_task_id_percent::1024            1                       # Percentage of cache occupancy per task id
system.cpu0.icache.tags.tag_accesses        151337807                       # Number of tag accesses
system.cpu0.icache.tags.data_accesses       151337807                       # Number of data accesses
system.cpu0.icache.pwrStateResidencyTicks::UNDEFINED 148527172152                       # Cumulative time (in ticks) in various power states
system.cpu0.icache.ReadReq_hits::switch_cpus0.inst     18917131                       # number of ReadReq hits
system.cpu0.icache.ReadReq_hits::total       18917131                       # number of ReadReq hits
system.cpu0.icache.demand_hits::switch_cpus0.inst     18917131                       # number of demand (read+write) hits
system.cpu0.icache.demand_hits::total        18917131                       # number of demand (read+write) hits
system.cpu0.icache.overall_hits::switch_cpus0.inst     18917131                       # number of overall hits
system.cpu0.icache.overall_hits::total       18917131                       # number of overall hits
system.cpu0.icache.ReadReq_misses::switch_cpus0.inst           87                       # number of ReadReq misses
system.cpu0.icache.ReadReq_misses::total           87                       # number of ReadReq misses
system.cpu0.icache.demand_misses::switch_cpus0.inst           87                       # number of demand (read+write) misses
system.cpu0.icache.demand_misses::total            87                       # number of demand (read+write) misses
system.cpu0.icache.overall_misses::switch_cpus0.inst           87                       # number of overall misses
system.cpu0.icache.overall_misses::total           87                       # number of overall misses
system.cpu0.icache.ReadReq_miss_latency::switch_cpus0.inst     10161828                       # number of ReadReq miss cycles
system.cpu0.icache.ReadReq_miss_latency::total     10161828                       # number of ReadReq miss cycles
system.cpu0.icache.demand_miss_latency::switch_cpus0.inst     10161828                       # number of demand (read+write) miss cycles
system.cpu0.icache.demand_miss_latency::total     10161828                       # number of demand (read+write) miss cycles
system.cpu0.icache.overall_miss_latency::switch_cpus0.inst     10161828                       # number of overall miss cycles
system.cpu0.icache.overall_miss_latency::total     10161828                       # number of overall miss cycles
system.cpu0.icache.ReadReq_accesses::switch_cpus0.inst     18917218                       # number of ReadReq accesses(hits+misses)
system.cpu0.icache.ReadReq_accesses::total     18917218                       # number of ReadReq accesses(hits+misses)
system.cpu0.icache.demand_accesses::switch_cpus0.inst     18917218                       # number of demand (read+write) accesses
system.cpu0.icache.demand_accesses::total     18917218                       # number of demand (read+write) accesses
system.cpu0.icache.overall_accesses::switch_cpus0.inst     18917218                       # number of overall (read+write) accesses
system.cpu0.icache.overall_accesses::total     18917218                       # number of overall (read+write) accesses
system.cpu0.icache.ReadReq_miss_rate::switch_cpus0.inst     0.000005                       # miss rate for ReadReq accesses
system.cpu0.icache.ReadReq_miss_rate::total     0.000005                       # miss rate for ReadReq accesses
system.cpu0.icache.demand_miss_rate::switch_cpus0.inst     0.000005                       # miss rate for demand accesses
system.cpu0.icache.demand_miss_rate::total     0.000005                       # miss rate for demand accesses
system.cpu0.icache.overall_miss_rate::switch_cpus0.inst     0.000005                       # miss rate for overall accesses
system.cpu0.icache.overall_miss_rate::total     0.000005                       # miss rate for overall accesses
system.cpu0.icache.ReadReq_avg_miss_latency::switch_cpus0.inst 116802.620690                       # average ReadReq miss latency
system.cpu0.icache.ReadReq_avg_miss_latency::total 116802.620690                       # average ReadReq miss latency
system.cpu0.icache.demand_avg_miss_latency::switch_cpus0.inst 116802.620690                       # average overall miss latency
system.cpu0.icache.demand_avg_miss_latency::total 116802.620690                       # average overall miss latency
system.cpu0.icache.overall_avg_miss_latency::switch_cpus0.inst 116802.620690                       # average overall miss latency
system.cpu0.icache.overall_avg_miss_latency::total 116802.620690                       # average overall miss latency
system.cpu0.icache.blocked_cycles::no_mshrs          557                       # number of cycles access was blocked
system.cpu0.icache.blocked_cycles::no_targets            0                       # number of cycles access was blocked
system.cpu0.icache.blocked::no_mshrs                6                       # number of cycles access was blocked
system.cpu0.icache.blocked::no_targets              0                       # number of cycles access was blocked
system.cpu0.icache.avg_blocked_cycles::no_mshrs    92.833333                       # average number of cycles each access was blocked
system.cpu0.icache.avg_blocked_cycles::no_targets          nan                       # average number of cycles each access was blocked
system.cpu0.icache.writebacks::writebacks           63                       # number of writebacks
system.cpu0.icache.writebacks::total               63                       # number of writebacks
system.cpu0.icache.ReadReq_mshr_hits::switch_cpus0.inst           24                       # number of ReadReq MSHR hits
system.cpu0.icache.ReadReq_mshr_hits::total           24                       # number of ReadReq MSHR hits
system.cpu0.icache.demand_mshr_hits::switch_cpus0.inst           24                       # number of demand (read+write) MSHR hits
system.cpu0.icache.demand_mshr_hits::total           24                       # number of demand (read+write) MSHR hits
system.cpu0.icache.overall_mshr_hits::switch_cpus0.inst           24                       # number of overall MSHR hits
system.cpu0.icache.overall_mshr_hits::total           24                       # number of overall MSHR hits
system.cpu0.icache.ReadReq_mshr_misses::switch_cpus0.inst           63                       # number of ReadReq MSHR misses
system.cpu0.icache.ReadReq_mshr_misses::total           63                       # number of ReadReq MSHR misses
system.cpu0.icache.demand_mshr_misses::switch_cpus0.inst           63                       # number of demand (read+write) MSHR misses
system.cpu0.icache.demand_mshr_misses::total           63                       # number of demand (read+write) MSHR misses
system.cpu0.icache.overall_mshr_misses::switch_cpus0.inst           63                       # number of overall MSHR misses
system.cpu0.icache.overall_mshr_misses::total           63                       # number of overall MSHR misses
system.cpu0.icache.ReadReq_mshr_miss_latency::switch_cpus0.inst      7103889                       # number of ReadReq MSHR miss cycles
system.cpu0.icache.ReadReq_mshr_miss_latency::total      7103889                       # number of ReadReq MSHR miss cycles
system.cpu0.icache.demand_mshr_miss_latency::switch_cpus0.inst      7103889                       # number of demand (read+write) MSHR miss cycles
system.cpu0.icache.demand_mshr_miss_latency::total      7103889                       # number of demand (read+write) MSHR miss cycles
system.cpu0.icache.overall_mshr_miss_latency::switch_cpus0.inst      7103889                       # number of overall MSHR miss cycles
system.cpu0.icache.overall_mshr_miss_latency::total      7103889                       # number of overall MSHR miss cycles
system.cpu0.icache.ReadReq_mshr_miss_rate::switch_cpus0.inst     0.000003                       # mshr miss rate for ReadReq accesses
system.cpu0.icache.ReadReq_mshr_miss_rate::total     0.000003                       # mshr miss rate for ReadReq accesses
system.cpu0.icache.demand_mshr_miss_rate::switch_cpus0.inst     0.000003                       # mshr miss rate for demand accesses
system.cpu0.icache.demand_mshr_miss_rate::total     0.000003                       # mshr miss rate for demand accesses
system.cpu0.icache.overall_mshr_miss_rate::switch_cpus0.inst     0.000003                       # mshr miss rate for overall accesses
system.cpu0.icache.overall_mshr_miss_rate::total     0.000003                       # mshr miss rate for overall accesses
system.cpu0.icache.ReadReq_avg_mshr_miss_latency::switch_cpus0.inst 112760.142857                       # average ReadReq mshr miss latency
system.cpu0.icache.ReadReq_avg_mshr_miss_latency::total 112760.142857                       # average ReadReq mshr miss latency
system.cpu0.icache.demand_avg_mshr_miss_latency::switch_cpus0.inst 112760.142857                       # average overall mshr miss latency
system.cpu0.icache.demand_avg_mshr_miss_latency::total 112760.142857                       # average overall mshr miss latency
system.cpu0.icache.overall_avg_mshr_miss_latency::switch_cpus0.inst 112760.142857                       # average overall mshr miss latency
system.cpu0.icache.overall_avg_mshr_miss_latency::total 112760.142857                       # average overall mshr miss latency
system.cpu0.itb_walker_cache.tags.pwrStateResidencyTicks::UNDEFINED 148527172152                       # Cumulative time (in ticks) in various power states
system.cpu0.itb_walker_cache.tags.replacements            0                       # number of replacements
system.cpu0.itb_walker_cache.tags.tagsinuse            0                       # Cycle average of tags in use
system.cpu0.itb_walker_cache.tags.total_refs            0                       # Total number of references to valid blocks.
system.cpu0.itb_walker_cache.tags.sampled_refs            0                       # Sample count of references to valid blocks.
system.cpu0.itb_walker_cache.tags.avg_refs          nan                       # Average number of references to valid blocks.
system.cpu0.itb_walker_cache.tags.warmup_cycle            0                       # Cycle when the warmup percentage was hit.
system.cpu0.itb_walker_cache.tags.tag_accesses            0                       # Number of tag accesses
system.cpu0.itb_walker_cache.tags.data_accesses            0                       # Number of data accesses
system.cpu0.itb_walker_cache.pwrStateResidencyTicks::UNDEFINED 148527172152                       # Cumulative time (in ticks) in various power states
system.cpu0.itb_walker_cache.blocked_cycles::no_mshrs            0                       # number of cycles access was blocked
system.cpu0.itb_walker_cache.blocked_cycles::no_targets            0                       # number of cycles access was blocked
system.cpu0.itb_walker_cache.blocked::no_mshrs            0                       # number of cycles access was blocked
system.cpu0.itb_walker_cache.blocked::no_targets            0                       # number of cycles access was blocked
system.cpu0.itb_walker_cache.avg_blocked_cycles::no_mshrs          nan                       # average number of cycles each access was blocked
system.cpu0.itb_walker_cache.avg_blocked_cycles::no_targets          nan                       # average number of cycles each access was blocked
system.cpu0.l2cache.tags.pwrStateResidencyTicks::UNDEFINED 148527172152                       # Cumulative time (in ticks) in various power states
system.cpu0.l2cache.tags.replacements         3007659                       # number of replacements
system.cpu0.l2cache.tags.tagsinuse               4096                       # Cycle average of tags in use
system.cpu0.l2cache.tags.total_refs           3690399                       # Total number of references to valid blocks.
system.cpu0.l2cache.tags.sampled_refs         3011755                       # Sample count of references to valid blocks.
system.cpu0.l2cache.tags.avg_refs            1.225332                       # Average number of references to valid blocks.
system.cpu0.l2cache.tags.warmup_cycle               0                       # Cycle when the warmup percentage was hit.
system.cpu0.l2cache.tags.occ_blocks::writebacks     0.490189                       # Average occupied blocks per requestor
system.cpu0.l2cache.tags.occ_blocks::cpu0.data    17.461055                       # Average occupied blocks per requestor
system.cpu0.l2cache.tags.occ_blocks::switch_cpus0.inst     0.222890                       # Average occupied blocks per requestor
system.cpu0.l2cache.tags.occ_blocks::switch_cpus0.data  4077.825866                       # Average occupied blocks per requestor
system.cpu0.l2cache.tags.occ_percent::writebacks     0.000120                       # Average percentage of cache occupancy
system.cpu0.l2cache.tags.occ_percent::cpu0.data     0.004263                       # Average percentage of cache occupancy
system.cpu0.l2cache.tags.occ_percent::switch_cpus0.inst     0.000054                       # Average percentage of cache occupancy
system.cpu0.l2cache.tags.occ_percent::switch_cpus0.data     0.995563                       # Average percentage of cache occupancy
system.cpu0.l2cache.tags.occ_percent::total            1                       # Average percentage of cache occupancy
system.cpu0.l2cache.tags.occ_task_id_blocks::1024         4096                       # Occupied blocks per task id
system.cpu0.l2cache.tags.age_task_id_blocks_1024::0          352                       # Occupied blocks per task id
system.cpu0.l2cache.tags.age_task_id_blocks_1024::1         1825                       # Occupied blocks per task id
system.cpu0.l2cache.tags.age_task_id_blocks_1024::2         1644                       # Occupied blocks per task id
system.cpu0.l2cache.tags.age_task_id_blocks_1024::3          275                       # Occupied blocks per task id
system.cpu0.l2cache.tags.occ_task_id_percent::1024            1                       # Percentage of cache occupancy per task id
system.cpu0.l2cache.tags.tag_accesses        29786223                       # Number of tag accesses
system.cpu0.l2cache.tags.data_accesses       29786223                       # Number of data accesses
system.cpu0.l2cache.pwrStateResidencyTicks::UNDEFINED 148527172152                       # Cumulative time (in ticks) in various power states
system.cpu0.l2cache.WritebackDirty_hits::writebacks      1271156                       # number of WritebackDirty hits
system.cpu0.l2cache.WritebackDirty_hits::total      1271156                       # number of WritebackDirty hits
system.cpu0.l2cache.WritebackClean_hits::writebacks           63                       # number of WritebackClean hits
system.cpu0.l2cache.WritebackClean_hits::total           63                       # number of WritebackClean hits
system.cpu0.l2cache.UpgradeReq_hits::switch_cpus0.data       317170                       # number of UpgradeReq hits
system.cpu0.l2cache.UpgradeReq_hits::total       317170                       # number of UpgradeReq hits
system.cpu0.l2cache.ReadExReq_hits::switch_cpus0.data       104224                       # number of ReadExReq hits
system.cpu0.l2cache.ReadExReq_hits::total       104224                       # number of ReadExReq hits
system.cpu0.l2cache.ReadSharedReq_hits::switch_cpus0.data        77236                       # number of ReadSharedReq hits
system.cpu0.l2cache.ReadSharedReq_hits::total        77236                       # number of ReadSharedReq hits
system.cpu0.l2cache.demand_hits::switch_cpus0.data       181460                       # number of demand (read+write) hits
system.cpu0.l2cache.demand_hits::total         181460                       # number of demand (read+write) hits
system.cpu0.l2cache.overall_hits::switch_cpus0.data       181460                       # number of overall hits
system.cpu0.l2cache.overall_hits::total        181460                       # number of overall hits
system.cpu0.l2cache.ReadExReq_misses::switch_cpus0.data       527239                       # number of ReadExReq misses
system.cpu0.l2cache.ReadExReq_misses::total       527239                       # number of ReadExReq misses
system.cpu0.l2cache.ReadCleanReq_misses::switch_cpus0.inst           63                       # number of ReadCleanReq misses
system.cpu0.l2cache.ReadCleanReq_misses::total           63                       # number of ReadCleanReq misses
system.cpu0.l2cache.ReadSharedReq_misses::switch_cpus0.data      2479974                       # number of ReadSharedReq misses
system.cpu0.l2cache.ReadSharedReq_misses::total      2479974                       # number of ReadSharedReq misses
system.cpu0.l2cache.demand_misses::switch_cpus0.inst           63                       # number of demand (read+write) misses
system.cpu0.l2cache.demand_misses::switch_cpus0.data      3007213                       # number of demand (read+write) misses
system.cpu0.l2cache.demand_misses::total      3007276                       # number of demand (read+write) misses
system.cpu0.l2cache.overall_misses::switch_cpus0.inst           63                       # number of overall misses
system.cpu0.l2cache.overall_misses::switch_cpus0.data      3007213                       # number of overall misses
system.cpu0.l2cache.overall_misses::total      3007276                       # number of overall misses
system.cpu0.l2cache.ReadExReq_miss_latency::switch_cpus0.data  19379792182                       # number of ReadExReq miss cycles
system.cpu0.l2cache.ReadExReq_miss_latency::total  19379792182                       # number of ReadExReq miss cycles
system.cpu0.l2cache.ReadCleanReq_miss_latency::switch_cpus0.inst      7015651                       # number of ReadCleanReq miss cycles
system.cpu0.l2cache.ReadCleanReq_miss_latency::total      7015651                       # number of ReadCleanReq miss cycles
system.cpu0.l2cache.ReadSharedReq_miss_latency::switch_cpus0.data 134664491392                       # number of ReadSharedReq miss cycles
system.cpu0.l2cache.ReadSharedReq_miss_latency::total 134664491392                       # number of ReadSharedReq miss cycles
system.cpu0.l2cache.demand_miss_latency::switch_cpus0.inst      7015651                       # number of demand (read+write) miss cycles
system.cpu0.l2cache.demand_miss_latency::switch_cpus0.data 154044283574                       # number of demand (read+write) miss cycles
system.cpu0.l2cache.demand_miss_latency::total 154051299225                       # number of demand (read+write) miss cycles
system.cpu0.l2cache.overall_miss_latency::switch_cpus0.inst      7015651                       # number of overall miss cycles
system.cpu0.l2cache.overall_miss_latency::switch_cpus0.data 154044283574                       # number of overall miss cycles
system.cpu0.l2cache.overall_miss_latency::total 154051299225                       # number of overall miss cycles
system.cpu0.l2cache.WritebackDirty_accesses::writebacks      1271156                       # number of WritebackDirty accesses(hits+misses)
system.cpu0.l2cache.WritebackDirty_accesses::total      1271156                       # number of WritebackDirty accesses(hits+misses)
system.cpu0.l2cache.WritebackClean_accesses::writebacks           63                       # number of WritebackClean accesses(hits+misses)
system.cpu0.l2cache.WritebackClean_accesses::total           63                       # number of WritebackClean accesses(hits+misses)
system.cpu0.l2cache.UpgradeReq_accesses::switch_cpus0.data       317170                       # number of UpgradeReq accesses(hits+misses)
system.cpu0.l2cache.UpgradeReq_accesses::total       317170                       # number of UpgradeReq accesses(hits+misses)
system.cpu0.l2cache.ReadExReq_accesses::switch_cpus0.data       631463                       # number of ReadExReq accesses(hits+misses)
system.cpu0.l2cache.ReadExReq_accesses::total       631463                       # number of ReadExReq accesses(hits+misses)
system.cpu0.l2cache.ReadCleanReq_accesses::switch_cpus0.inst           63                       # number of ReadCleanReq accesses(hits+misses)
system.cpu0.l2cache.ReadCleanReq_accesses::total           63                       # number of ReadCleanReq accesses(hits+misses)
system.cpu0.l2cache.ReadSharedReq_accesses::switch_cpus0.data      2557210                       # number of ReadSharedReq accesses(hits+misses)
system.cpu0.l2cache.ReadSharedReq_accesses::total      2557210                       # number of ReadSharedReq accesses(hits+misses)
system.cpu0.l2cache.demand_accesses::switch_cpus0.inst           63                       # number of demand (read+write) accesses
system.cpu0.l2cache.demand_accesses::switch_cpus0.data      3188673                       # number of demand (read+write) accesses
system.cpu0.l2cache.demand_accesses::total      3188736                       # number of demand (read+write) accesses
system.cpu0.l2cache.overall_accesses::switch_cpus0.inst           63                       # number of overall (read+write) accesses
system.cpu0.l2cache.overall_accesses::switch_cpus0.data      3188673                       # number of overall (read+write) accesses
system.cpu0.l2cache.overall_accesses::total      3188736                       # number of overall (read+write) accesses
system.cpu0.l2cache.ReadExReq_miss_rate::switch_cpus0.data     0.834948                       # miss rate for ReadExReq accesses
system.cpu0.l2cache.ReadExReq_miss_rate::total     0.834948                       # miss rate for ReadExReq accesses
system.cpu0.l2cache.ReadCleanReq_miss_rate::switch_cpus0.inst            1                       # miss rate for ReadCleanReq accesses
system.cpu0.l2cache.ReadCleanReq_miss_rate::total            1                       # miss rate for ReadCleanReq accesses
system.cpu0.l2cache.ReadSharedReq_miss_rate::switch_cpus0.data     0.969797                       # miss rate for ReadSharedReq accesses
system.cpu0.l2cache.ReadSharedReq_miss_rate::total     0.969797                       # miss rate for ReadSharedReq accesses
system.cpu0.l2cache.demand_miss_rate::switch_cpus0.inst            1                       # miss rate for demand accesses
system.cpu0.l2cache.demand_miss_rate::switch_cpus0.data     0.943092                       # miss rate for demand accesses
system.cpu0.l2cache.demand_miss_rate::total     0.943093                       # miss rate for demand accesses
system.cpu0.l2cache.overall_miss_rate::switch_cpus0.inst            1                       # miss rate for overall accesses
system.cpu0.l2cache.overall_miss_rate::switch_cpus0.data     0.943092                       # miss rate for overall accesses
system.cpu0.l2cache.overall_miss_rate::total     0.943093                       # miss rate for overall accesses
system.cpu0.l2cache.ReadExReq_avg_miss_latency::switch_cpus0.data 36757.129465                       # average ReadExReq miss latency
system.cpu0.l2cache.ReadExReq_avg_miss_latency::total 36757.129465                       # average ReadExReq miss latency
system.cpu0.l2cache.ReadCleanReq_avg_miss_latency::switch_cpus0.inst 111359.539683                       # average ReadCleanReq miss latency
system.cpu0.l2cache.ReadCleanReq_avg_miss_latency::total 111359.539683                       # average ReadCleanReq miss latency
system.cpu0.l2cache.ReadSharedReq_avg_miss_latency::switch_cpus0.data 54300.767424                       # average ReadSharedReq miss latency
system.cpu0.l2cache.ReadSharedReq_avg_miss_latency::total 54300.767424                       # average ReadSharedReq miss latency
system.cpu0.l2cache.demand_avg_miss_latency::switch_cpus0.inst 111359.539683                       # average overall miss latency
system.cpu0.l2cache.demand_avg_miss_latency::switch_cpus0.data 51224.932711                       # average overall miss latency
system.cpu0.l2cache.demand_avg_miss_latency::total 51226.192483                       # average overall miss latency
system.cpu0.l2cache.overall_avg_miss_latency::switch_cpus0.inst 111359.539683                       # average overall miss latency
system.cpu0.l2cache.overall_avg_miss_latency::switch_cpus0.data 51224.932711                       # average overall miss latency
system.cpu0.l2cache.overall_avg_miss_latency::total 51226.192483                       # average overall miss latency
system.cpu0.l2cache.blocked_cycles::no_mshrs            0                       # number of cycles access was blocked
system.cpu0.l2cache.blocked_cycles::no_targets            0                       # number of cycles access was blocked
system.cpu0.l2cache.blocked::no_mshrs               0                       # number of cycles access was blocked
system.cpu0.l2cache.blocked::no_targets             0                       # number of cycles access was blocked
system.cpu0.l2cache.avg_blocked_cycles::no_mshrs          nan                       # average number of cycles each access was blocked
system.cpu0.l2cache.avg_blocked_cycles::no_targets          nan                       # average number of cycles each access was blocked
system.cpu0.l2cache.writebacks::writebacks      1228001                       # number of writebacks
system.cpu0.l2cache.writebacks::total         1228001                       # number of writebacks
system.cpu0.l2cache.CleanEvict_mshr_misses::writebacks          350                       # number of CleanEvict MSHR misses
system.cpu0.l2cache.CleanEvict_mshr_misses::total          350                       # number of CleanEvict MSHR misses
system.cpu0.l2cache.ReadExReq_mshr_misses::switch_cpus0.data       527239                       # number of ReadExReq MSHR misses
system.cpu0.l2cache.ReadExReq_mshr_misses::total       527239                       # number of ReadExReq MSHR misses
system.cpu0.l2cache.ReadCleanReq_mshr_misses::switch_cpus0.inst           63                       # number of ReadCleanReq MSHR misses
system.cpu0.l2cache.ReadCleanReq_mshr_misses::total           63                       # number of ReadCleanReq MSHR misses
system.cpu0.l2cache.ReadSharedReq_mshr_misses::switch_cpus0.data      2479974                       # number of ReadSharedReq MSHR misses
system.cpu0.l2cache.ReadSharedReq_mshr_misses::total      2479974                       # number of ReadSharedReq MSHR misses
system.cpu0.l2cache.demand_mshr_misses::switch_cpus0.inst           63                       # number of demand (read+write) MSHR misses
system.cpu0.l2cache.demand_mshr_misses::switch_cpus0.data      3007213                       # number of demand (read+write) MSHR misses
system.cpu0.l2cache.demand_mshr_misses::total      3007276                       # number of demand (read+write) MSHR misses
system.cpu0.l2cache.overall_mshr_misses::switch_cpus0.inst           63                       # number of overall MSHR misses
system.cpu0.l2cache.overall_mshr_misses::switch_cpus0.data      3007213                       # number of overall MSHR misses
system.cpu0.l2cache.overall_mshr_misses::total      3007276                       # number of overall MSHR misses
system.cpu0.l2cache.ReadExReq_mshr_miss_latency::switch_cpus0.data  17887691825                       # number of ReadExReq MSHR miss cycles
system.cpu0.l2cache.ReadExReq_mshr_miss_latency::total  17887691825                       # number of ReadExReq MSHR miss cycles
system.cpu0.l2cache.ReadCleanReq_mshr_miss_latency::switch_cpus0.inst      6837787                       # number of ReadCleanReq MSHR miss cycles
system.cpu0.l2cache.ReadCleanReq_mshr_miss_latency::total      6837787                       # number of ReadCleanReq MSHR miss cycles
system.cpu0.l2cache.ReadSharedReq_mshr_miss_latency::switch_cpus0.data 127646096237                       # number of ReadSharedReq MSHR miss cycles
system.cpu0.l2cache.ReadSharedReq_mshr_miss_latency::total 127646096237                       # number of ReadSharedReq MSHR miss cycles
system.cpu0.l2cache.demand_mshr_miss_latency::switch_cpus0.inst      6837787                       # number of demand (read+write) MSHR miss cycles
system.cpu0.l2cache.demand_mshr_miss_latency::switch_cpus0.data 145533788062                       # number of demand (read+write) MSHR miss cycles
system.cpu0.l2cache.demand_mshr_miss_latency::total 145540625849                       # number of demand (read+write) MSHR miss cycles
system.cpu0.l2cache.overall_mshr_miss_latency::switch_cpus0.inst      6837787                       # number of overall MSHR miss cycles
system.cpu0.l2cache.overall_mshr_miss_latency::switch_cpus0.data 145533788062                       # number of overall MSHR miss cycles
system.cpu0.l2cache.overall_mshr_miss_latency::total 145540625849                       # number of overall MSHR miss cycles
system.cpu0.l2cache.CleanEvict_mshr_miss_rate::writebacks          inf                       # mshr miss rate for CleanEvict accesses
system.cpu0.l2cache.CleanEvict_mshr_miss_rate::total          inf                       # mshr miss rate for CleanEvict accesses
system.cpu0.l2cache.ReadExReq_mshr_miss_rate::switch_cpus0.data     0.834948                       # mshr miss rate for ReadExReq accesses
system.cpu0.l2cache.ReadExReq_mshr_miss_rate::total     0.834948                       # mshr miss rate for ReadExReq accesses
system.cpu0.l2cache.ReadCleanReq_mshr_miss_rate::switch_cpus0.inst            1                       # mshr miss rate for ReadCleanReq accesses
system.cpu0.l2cache.ReadCleanReq_mshr_miss_rate::total            1                       # mshr miss rate for ReadCleanReq accesses
system.cpu0.l2cache.ReadSharedReq_mshr_miss_rate::switch_cpus0.data     0.969797                       # mshr miss rate for ReadSharedReq accesses
system.cpu0.l2cache.ReadSharedReq_mshr_miss_rate::total     0.969797                       # mshr miss rate for ReadSharedReq accesses
system.cpu0.l2cache.demand_mshr_miss_rate::switch_cpus0.inst            1                       # mshr miss rate for demand accesses
system.cpu0.l2cache.demand_mshr_miss_rate::switch_cpus0.data     0.943092                       # mshr miss rate for demand accesses
system.cpu0.l2cache.demand_mshr_miss_rate::total     0.943093                       # mshr miss rate for demand accesses
system.cpu0.l2cache.overall_mshr_miss_rate::switch_cpus0.inst            1                       # mshr miss rate for overall accesses
system.cpu0.l2cache.overall_mshr_miss_rate::switch_cpus0.data     0.943092                       # mshr miss rate for overall accesses
system.cpu0.l2cache.overall_mshr_miss_rate::total     0.943093                       # mshr miss rate for overall accesses
system.cpu0.l2cache.ReadExReq_avg_mshr_miss_latency::switch_cpus0.data 33927.102936                       # average ReadExReq mshr miss latency
system.cpu0.l2cache.ReadExReq_avg_mshr_miss_latency::total 33927.102936                       # average ReadExReq mshr miss latency
system.cpu0.l2cache.ReadCleanReq_avg_mshr_miss_latency::switch_cpus0.inst 108536.301587                       # average ReadCleanReq mshr miss latency
system.cpu0.l2cache.ReadCleanReq_avg_mshr_miss_latency::total 108536.301587                       # average ReadCleanReq mshr miss latency
system.cpu0.l2cache.ReadSharedReq_avg_mshr_miss_latency::switch_cpus0.data 51470.739708                       # average ReadSharedReq mshr miss latency
system.cpu0.l2cache.ReadSharedReq_avg_mshr_miss_latency::total 51470.739708                       # average ReadSharedReq mshr miss latency
system.cpu0.l2cache.demand_avg_mshr_miss_latency::switch_cpus0.inst 108536.301587                       # average overall mshr miss latency
system.cpu0.l2cache.demand_avg_mshr_miss_latency::switch_cpus0.data 48394.905204                       # average overall mshr miss latency
system.cpu0.l2cache.demand_avg_mshr_miss_latency::total 48396.165117                       # average overall mshr miss latency
system.cpu0.l2cache.overall_avg_mshr_miss_latency::switch_cpus0.inst 108536.301587                       # average overall mshr miss latency
system.cpu0.l2cache.overall_avg_mshr_miss_latency::switch_cpus0.data 48394.905204                       # average overall mshr miss latency
system.cpu0.l2cache.overall_avg_mshr_miss_latency::total 48396.165117                       # average overall mshr miss latency
system.cpu0.toL2Bus.snoop_filter.tot_requests      6705595                       # Total number of requests made to the snoop filter.
system.cpu0.toL2Bus.snoop_filter.hit_single_requests      3515238                       # Number of requests hitting in the snoop filter with a single holder of the requested data.
system.cpu0.toL2Bus.snoop_filter.hit_multi_requests            0                       # Number of requests hitting in the snoop filter with multiple (>1) holders of the requested data.
system.cpu0.toL2Bus.snoop_filter.tot_snoops         1924                       # Total number of snoops made to the snoop filter.
system.cpu0.toL2Bus.snoop_filter.hit_single_snoops         1924                       # Number of snoops hitting in the snoop filter with a single holder of the requested data.
system.cpu0.toL2Bus.snoop_filter.hit_multi_snoops            0                       # Number of snoops hitting in the snoop filter with multiple (>1) holders of the requested data.
system.cpu0.toL2Bus.pwrStateResidencyTicks::UNDEFINED 148527172152                       # Cumulative time (in ticks) in various power states
system.cpu0.toL2Bus.trans_dist::ReadResp      2557272                       # Transaction distribution
system.cpu0.toL2Bus.trans_dist::WritebackDirty      2499157                       # Transaction distribution
system.cpu0.toL2Bus.trans_dist::WritebackClean           63                       # Transaction distribution
system.cpu0.toL2Bus.trans_dist::CleanEvict      3731549                       # Transaction distribution
system.cpu0.toL2Bus.trans_dist::UpgradeReq       317170                       # Transaction distribution
system.cpu0.toL2Bus.trans_dist::UpgradeResp       317170                       # Transaction distribution
system.cpu0.toL2Bus.trans_dist::ReadExReq       631463                       # Transaction distribution
system.cpu0.toL2Bus.trans_dist::ReadExResp       631463                       # Transaction distribution
system.cpu0.toL2Bus.trans_dist::ReadCleanReq           63                       # Transaction distribution
system.cpu0.toL2Bus.trans_dist::ReadSharedReq      2557210                       # Transaction distribution
system.cpu0.toL2Bus.pkt_count_system.cpu0.icache.mem_side::system.cpu0.l2cache.cpu_side          189                       # Packet count per connected master and slave (bytes)
system.cpu0.toL2Bus.pkt_count_system.cpu0.dcache.mem_side::system.cpu0.l2cache.cpu_side     10200357                       # Packet count per connected master and slave (bytes)
system.cpu0.toL2Bus.pkt_count::total         10200546                       # Packet count per connected master and slave (bytes)
system.cpu0.toL2Bus.pkt_size_system.cpu0.icache.mem_side::system.cpu0.l2cache.cpu_side         8064                       # Cumulative packet size per connected master and slave (bytes)
system.cpu0.toL2Bus.pkt_size_system.cpu0.dcache.mem_side::system.cpu0.l2cache.cpu_side    285428992                       # Cumulative packet size per connected master and slave (bytes)
system.cpu0.toL2Bus.pkt_size::total         285437056                       # Cumulative packet size per connected master and slave (bytes)
system.cpu0.toL2Bus.snoops                    3042034                       # Total snoops (count)
system.cpu0.toL2Bus.snoopTraffic             78592064                       # Total snoop traffic (bytes)
system.cpu0.toL2Bus.snoop_fanout::samples      6551195                       # Request fanout histogram
system.cpu0.toL2Bus.snoop_fanout::mean       0.000294                       # Request fanout histogram
system.cpu0.toL2Bus.snoop_fanout::stdev      0.017135                       # Request fanout histogram
system.cpu0.toL2Bus.snoop_fanout::underflows            0      0.00%      0.00% # Request fanout histogram
system.cpu0.toL2Bus.snoop_fanout::0           6549271     99.97%     99.97% # Request fanout histogram
system.cpu0.toL2Bus.snoop_fanout::1              1924      0.03%    100.00% # Request fanout histogram
system.cpu0.toL2Bus.snoop_fanout::2                 0      0.00%    100.00% # Request fanout histogram
system.cpu0.toL2Bus.snoop_fanout::3                 0      0.00%    100.00% # Request fanout histogram
system.cpu0.toL2Bus.snoop_fanout::4                 0      0.00%    100.00% # Request fanout histogram
system.cpu0.toL2Bus.snoop_fanout::overflows            0      0.00%    100.00% # Request fanout histogram
system.cpu0.toL2Bus.snoop_fanout::min_value            0                       # Request fanout histogram
system.cpu0.toL2Bus.snoop_fanout::max_value            1                       # Request fanout histogram
system.cpu0.toL2Bus.snoop_fanout::total       6551195                       # Request fanout histogram
system.cpu0.toL2Bus.reqLayer0.occupancy    3081239711                       # Layer occupancy (ticks)
system.cpu0.toL2Bus.reqLayer0.utilization          3.6                       # Layer utilization (%)
system.cpu0.toL2Bus.respLayer0.occupancy        63269                       # Layer occupancy (ticks)
system.cpu0.toL2Bus.respLayer0.utilization          0.0                       # Layer utilization (%)
system.cpu0.toL2Bus.respLayer1.occupancy   3291697473                       # Layer occupancy (ticks)
system.cpu0.toL2Bus.respLayer1.utilization          3.8                       # Layer utilization (%)
system.cpu1.dtb.walker.pwrStateResidencyTicks::UNDEFINED 148527172152                       # Cumulative time (in ticks) in various power states
system.cpu1.dtb.rdAccesses                          0                       # TLB accesses on read requests
system.cpu1.dtb.wrAccesses                          0                       # TLB accesses on write requests
system.cpu1.dtb.rdMisses                            0                       # TLB misses on read requests
system.cpu1.dtb.wrMisses                            0                       # TLB misses on write requests
system.cpu1.apic_clk_domain.clock                5328                       # Clock period in ticks
system.cpu1.interrupts.pwrStateResidencyTicks::UNDEFINED 148527172152                       # Cumulative time (in ticks) in various power states
system.cpu1.itb.walker.pwrStateResidencyTicks::UNDEFINED 148527172152                       # Cumulative time (in ticks) in various power states
system.cpu1.itb.rdAccesses                          0                       # TLB accesses on read requests
system.cpu1.itb.wrAccesses                          0                       # TLB accesses on write requests
system.cpu1.itb.rdMisses                            0                       # TLB misses on read requests
system.cpu1.itb.wrMisses                            0                       # TLB misses on write requests
system.cpu1.workload.numSyscalls                    0                       # Number of system calls
system.cpu1.numPwrStateTransitions                  1                       # Number of power state transitions
system.cpu1.pwrStateResidencyTicks::ON    62908247115                       # Cumulative time (in ticks) in various power states
system.cpu1.pwrStateResidencyTicks::OFF   85618925037                       # Cumulative time (in ticks) in various power states
system.cpu1.numCycles                               0                       # number of cpu cycles simulated
system.cpu1.numWorkItemsStarted                     0                       # number of work items this cpu started
system.cpu1.numWorkItemsCompleted                   0                       # number of work items this cpu completed
system.cpu1.committedInsts                          0                       # Number of instructions committed
system.cpu1.committedOps                            0                       # Number of ops (including micro ops) committed
system.cpu1.num_int_alu_accesses                    0                       # Number of integer alu accesses
system.cpu1.num_fp_alu_accesses                     0                       # Number of float alu accesses
system.cpu1.num_vec_alu_accesses                    0                       # Number of vector alu accesses
system.cpu1.num_func_calls                          0                       # number of times a function call or return occured
system.cpu1.num_conditional_control_insts            0                       # number of instructions that are conditional controls
system.cpu1.num_int_insts                           0                       # number of integer instructions
system.cpu1.num_fp_insts                            0                       # number of float instructions
system.cpu1.num_vec_insts                           0                       # number of vector instructions
system.cpu1.num_int_register_reads                  0                       # number of times the integer registers were read
system.cpu1.num_int_register_writes                 0                       # number of times the integer registers were written
system.cpu1.num_fp_register_reads                   0                       # number of times the floating registers were read
system.cpu1.num_fp_register_writes                  0                       # number of times the floating registers were written
system.cpu1.num_vec_register_reads                  0                       # number of times the vector registers were read
system.cpu1.num_vec_register_writes                 0                       # number of times the vector registers were written
system.cpu1.num_mem_refs                            0                       # number of memory refs
system.cpu1.num_load_insts                          0                       # Number of load instructions
system.cpu1.num_store_insts                         0                       # Number of store instructions
system.cpu1.num_idle_cycles                         0                       # Number of idle cycles
system.cpu1.num_busy_cycles                         0                       # Number of busy cycles
system.cpu1.not_idle_fraction                       1                       # Percentage of non-idle cycles
system.cpu1.idle_fraction                           0                       # Percentage of idle cycles
system.cpu1.op_class::No_OpClass                    0                       # Class of executed instruction
system.cpu1.op_class::IntAlu                        0                       # Class of executed instruction
system.cpu1.op_class::IntMult                       0                       # Class of executed instruction
system.cpu1.op_class::IntDiv                        0                       # Class of executed instruction
system.cpu1.op_class::FloatAdd                      0                       # Class of executed instruction
system.cpu1.op_class::FloatCmp                      0                       # Class of executed instruction
system.cpu1.op_class::FloatCvt                      0                       # Class of executed instruction
system.cpu1.op_class::FloatMult                     0                       # Class of executed instruction
system.cpu1.op_class::FloatMultAcc                  0                       # Class of executed instruction
system.cpu1.op_class::FloatDiv                      0                       # Class of executed instruction
system.cpu1.op_class::FloatMisc                     0                       # Class of executed instruction
system.cpu1.op_class::FloatSqrt                     0                       # Class of executed instruction
system.cpu1.op_class::SimdAdd                       0                       # Class of executed instruction
system.cpu1.op_class::SimdAddAcc                    0                       # Class of executed instruction
[...]
system.switch_cpus3.iew.iewIdleCycles               0                       # Number of cycles IEW is idle
system.switch_cpus3.iew.iewSquashCycles          2679                       # Number of cycles IEW is squashing
system.switch_cpus3.iew.iewBlockCycles      107750154                       # Number of cycles IEW is blocking
system.switch_cpus3.iew.iewUnblockCycles     19215896                       # Number of cycles IEW is unblocking
system.switch_cpus3.iew.iewDispatchedInsts    263524045                       # Number of instructions dispatched to IQ
system.switch_cpus3.iew.iewDispSquashedInsts          267                       # Number of squashed instructions skipped by dispatch
system.switch_cpus3.iew.iewDispLoadInsts     48920714                       # Number of dispatched load instructions
system.switch_cpus3.iew.iewDispStoreInsts     12919745                       # Number of dispatched store instructions
system.switch_cpus3.iew.iewDispNonSpecInsts          130                       # Number of dispatched non-speculative instructions
system.switch_cpus3.iew.iewIQFullEvents       1400264                       # Number of times the IQ has become full, causing a stall
system.switch_cpus3.iew.iewLSQFullEvents     16974567                       # Number of times the LSQ has become full, causing a stall
system.switch_cpus3.iew.memOrderViolationEvents          431                       # Number of memory order violations
system.switch_cpus3.iew.predictedTakenIncorrect          822                       # Number of branches that were predicted taken incorrectly
system.switch_cpus3.iew.predictedNotTakenIncorrect         2124                       # Number of branches that were predicted not taken incorrectly
system.switch_cpus3.iew.branchMispredicts         2946                       # Number of branch mispredicts detected at execute
system.switch_cpus3.iew.iewExecutedInsts    269030395                       # Number of executed instructions
system.switch_cpus3.iew.iewExecLoadInsts     54450219                       # Number of load instructions executed
system.switch_cpus3.iew.iewExecSquashedInsts         5269                       # Number of squashed instructions skipped in execute
system.switch_cpus3.iew.exec_swp                    0                       # number of swp insts executed
system.switch_cpus3.iew.exec_nop                    0                       # number of nop insts executed
system.switch_cpus3.iew.exec_refs            67366578                       # number of memory reference insts executed
system.switch_cpus3.iew.exec_branches         7979669                       # Number of branches executed
system.switch_cpus3.iew.exec_stores          12916359                       # Number of stores executed
system.switch_cpus3.iew.exec_rate            1.046347                       # Inst execution rate
system.switch_cpus3.iew.wb_sent             263493906                       # cumulative count of insts sent to commit
system.switch_cpus3.iew.wb_count            263493273                       # cumulative count of insts written-back
system.switch_cpus3.iew.wb_producers        200302167                       # num instructions producing a value
system.switch_cpus3.iew.wb_consumers        343341456                       # num instructions consuming a value
system.switch_cpus3.iew.wb_rate              1.024812                       # insts written-back per cycle
system.switch_cpus3.iew.wb_fanout            0.583391                       # average fanout of values written-back
system.switch_cpus3.commit.commitSquashedInsts        72777                       # The number of squashed insts skipped by commit
system.switch_cpus3.commit.branchMispredicts         2291                       # The number of times a branch was mispredicted
system.switch_cpus3.commit.committed_per_cycle::samples    257098607                       # Number of insts commited each cycle
system.switch_cpus3.commit.committed_per_cycle::mean     1.024709                       # Number of insts commited each cycle
system.switch_cpus3.commit.committed_per_cycle::stdev     2.411574                       # Number of insts commited each cycle
system.switch_cpus3.commit.committed_per_cycle::underflows            0      0.00%      0.00% # Number of insts commited each cycle
system.switch_cpus3.commit.committed_per_cycle::0    207032127     80.53%     80.53% # Number of insts commited each cycle
system.switch_cpus3.commit.committed_per_cycle::1      5399478      2.10%     82.63% # Number of insts commited each cycle
system.switch_cpus3.commit.committed_per_cycle::2      8374410      3.26%     85.88% # Number of insts commited each cycle
system.switch_cpus3.commit.committed_per_cycle::3      3808999      1.48%     87.37% # Number of insts commited each cycle
system.switch_cpus3.commit.committed_per_cycle::4      3939593      1.53%     88.90% # Number of insts commited each cycle
system.switch_cpus3.commit.committed_per_cycle::5      1504562      0.59%     89.48% # Number of insts commited each cycle
system.switch_cpus3.commit.committed_per_cycle::6      3314154      1.29%     90.77% # Number of insts commited each cycle
system.switch_cpus3.commit.committed_per_cycle::7      3092434      1.20%     91.97% # Number of insts commited each cycle
system.switch_cpus3.commit.committed_per_cycle::8     20632850      8.03%    100.00% # Number of insts commited each cycle
system.switch_cpus3.commit.committed_per_cycle::overflows            0      0.00%    100.00% # Number of insts commited each cycle
system.switch_cpus3.commit.committed_per_cycle::min_value            0                       # Number of insts commited each cycle
system.switch_cpus3.commit.committed_per_cycle::max_value            8                       # Number of insts commited each cycle
system.switch_cpus3.commit.committed_per_cycle::total    257098607                       # Number of insts commited each cycle
system.switch_cpus3.commit.committedInsts    199410873                       # Number of instructions committed
system.switch_cpus3.commit.committedOps     263451239                       # Number of ops (including micro ops) committed
system.switch_cpus3.commit.swp_count                0                       # Number of s/w prefetches committed
system.switch_cpus3.commit.refs              61824497                       # Number of memory references committed
system.switch_cpus3.commit.loads             48909830                       # Number of loads committed
system.switch_cpus3.commit.membars                  0                       # Number of memory barriers committed
system.switch_cpus3.commit.branches           7976448                       # Number of branches committed
system.switch_cpus3.commit.vec_insts                0                       # Number of committed Vector instructions.
system.switch_cpus3.commit.fp_insts         174407709                       # Number of committed floating point instructions.
system.switch_cpus3.commit.int_insts        146645933                       # Number of committed integer instructions.
system.switch_cpus3.commit.function_calls       571458                       # Number of function calls committed.
system.switch_cpus3.commit.op_class_0::No_OpClass          213      0.00%      0.00% # Class of committed instruction
system.switch_cpus3.commit.op_class_0::IntAlu    120515542     45.74%     45.74% # Class of committed instruction
system.switch_cpus3.commit.op_class_0::IntMult        94047      0.04%     45.78% # Class of committed instruction
system.switch_cpus3.commit.op_class_0::IntDiv            0      0.00%     45.78% # Class of committed instruction
system.switch_cpus3.commit.op_class_0::FloatAdd     81016940     30.75%     76.53% # Class of committed instruction
system.switch_cpus3.commit.op_class_0::FloatCmp            0      0.00%     76.53% # Class of committed instruction
system.switch_cpus3.commit.op_class_0::FloatCvt            0      0.00%     76.53% # Class of committed instruction
system.switch_cpus3.commit.op_class_0::FloatMult            0      0.00%     76.53% # Class of committed instruction
system.switch_cpus3.commit.op_class_0::FloatMultAcc            0      0.00%     76.53% # Class of committed instruction
system.switch_cpus3.commit.op_class_0::FloatDiv            0      0.00%     76.53% # Class of committed instruction
system.switch_cpus3.commit.op_class_0::FloatMisc            0      0.00%     76.53% # Class of committed instruction
system.switch_cpus3.commit.op_class_0::FloatSqrt            0      0.00%     76.53% # Class of committed instruction
system.switch_cpus3.commit.op_class_0::SimdAdd            0      0.00%     76.53% # Class of committed instruction
system.switch_cpus3.commit.op_class_0::SimdAddAcc            0      0.00%     76.53% # Class of committed instruction
system.switch_cpus3.commit.op_class_0::SimdAlu            0      0.00%     76.53% # Class of committed instruction
system.switch_cpus3.commit.op_class_0::SimdCmp            0      0.00%     76.53% # Class of committed instruction
system.switch_cpus3.commit.op_class_0::SimdCvt            0      0.00%     76.53% # Class of committed instruction
system.switch_cpus3.commit.op_class_0::SimdMisc            0      0.00%     76.53% # Class of committed instruction
system.switch_cpus3.commit.op_class_0::SimdMult            0      0.00%     76.53% # Class of committed instruction
system.switch_cpus3.commit.op_class_0::SimdMultAcc            0      0.00%     76.53% # Class of committed instruction
system.switch_cpus3.commit.op_class_0::SimdShift            0      0.00%     76.53% # Class of committed instruction
system.switch_cpus3.commit.op_class_0::SimdShiftAcc            0      0.00%     76.53% # Class of committed instruction
system.switch_cpus3.commit.op_class_0::SimdSqrt            0      0.00%     76.53% # Class of committed instruction
system.switch_cpus3.commit.op_class_0::SimdFloatAdd            0      0.00%     76.53% # Class of committed instruction
system.switch_cpus3.commit.op_class_0::SimdFloatAlu            0      0.00%     76.53% # Class of committed instruction
system.switch_cpus3.commit.op_class_0::SimdFloatCmp            0      0.00%     76.53% # Class of committed instruction
system.switch_cpus3.commit.op_class_0::SimdFloatCvt            0      0.00%     76.53% # Class of committed instruction
system.switch_cpus3.commit.op_class_0::SimdFloatDiv            0      0.00%     76.53% # Class of committed instruction
system.switch_cpus3.commit.op_class_0::SimdFloatMisc            0      0.00%     76.53% # Class of committed instruction
system.switch_cpus3.commit.op_class_0::SimdFloatMult            0      0.00%     76.53% # Class of committed instruction
system.switch_cpus3.commit.op_class_0::SimdFloatMultAcc            0      0.00%     76.53% # Class of committed instruction
system.switch_cpus3.commit.op_class_0::SimdFloatSqrt            0      0.00%     76.53% # Class of committed instruction
system.switch_cpus3.commit.op_class_0::MemRead      3271415      1.24%     77.77% # Class of committed instruction
system.switch_cpus3.commit.op_class_0::MemWrite       950372      0.36%     78.14% # Class of committed instruction
system.switch_cpus3.commit.op_class_0::FloatMemRead     45638415     17.32%     95.46% # Class of committed instruction
system.switch_cpus3.commit.op_class_0::FloatMemWrite     11964295      4.54%    100.00% # Class of committed instruction
system.switch_cpus3.commit.op_class_0::IprAccess            0      0.00%    100.00% # Class of committed instruction
system.switch_cpus3.commit.op_class_0::InstPrefetch            0      0.00%    100.00% # Class of committed instruction
system.switch_cpus3.commit.op_class_0::total    263451239                       # Class of committed instruction
system.switch_cpus3.commit.bw_lim_events     20632850                       # number cycles where commit BW limit reached
system.switch_cpus3.rob.rob_reads           499989773                       # The number of ROB reads
system.switch_cpus3.rob.rob_writes          527059603                       # The number of ROB writes
system.switch_cpus3.timesIdled                     33                       # Number of times that the entire CPU went into an idle state and unscheduled itself
system.switch_cpus3.idleCycles                   3885                       # Total number of cycles that the CPU has spent unscheduled due to idling
system.switch_cpus3.committedInsts          199410873                       # Number of Instructions Simulated
system.switch_cpus3.committedOps            263451239                       # Number of Ops (including micro ops) Simulated
system.switch_cpus3.cpi                      1.289367                       # CPI: Cycles Per Instruction
system.switch_cpus3.cpi_total                1.289367                       # CPI: Total CPI of All Threads
system.switch_cpus3.ipc                      0.775574                       # IPC: Instructions Per Cycle
system.switch_cpus3.ipc_total                0.775574                       # IPC: Total IPC of All Threads
system.switch_cpus3.int_regfile_reads       229404234                       # number of integer regfile reads
system.switch_cpus3.int_regfile_writes       80244856                       # number of integer regfile writes
system.switch_cpus3.fp_regfile_reads        326594270                       # number of floating regfile reads
system.switch_cpus3.fp_regfile_writes       162446199                       # number of floating regfile writes
system.switch_cpus3.cc_regfile_reads         37302973                       # number of cc regfile reads
system.switch_cpus3.cc_regfile_writes        60726828                       # number of cc regfile writes
system.switch_cpus3.misc_regfile_reads       84229804                       # number of misc regfile reads
system.switch_cpus3.misc_regfile_writes             1                       # number of misc regfile writes
system.tol3bus.snoop_filter.tot_requests     24031157                       # Total number of requests made to the snoop filter.
system.tol3bus.snoop_filter.hit_single_requests     12015716                       # Number of requests hitting in the snoop filter with a single holder of the requested data.
system.tol3bus.snoop_filter.hit_multi_requests            0                       # Number of requests hitting in the snoop filter with multiple (>1) holders of the requested data.
system.tol3bus.snoop_filter.tot_snoops         158386                       # Total number of snoops made to the snoop filter.
system.tol3bus.snoop_filter.hit_single_snoops       158386                       # Number of snoops hitting in the snoop filter with a single holder of the requested data.
system.tol3bus.snoop_filter.hit_multi_snoops            0                       # Number of snoops hitting in the snoop filter with multiple (>1) holders of the requested data.
system.tol3bus.pwrStateResidencyTicks::UNDEFINED 148527172152                       # Cumulative time (in ticks) in various power states
system.tol3bus.trans_dist::ReadResp           9895924                       # Transaction distribution
system.tol3bus.trans_dist::WritebackDirty      6989130                       # Transaction distribution
system.tol3bus.trans_dist::CleanEvict        14171016                       # Transaction distribution
system.tol3bus.trans_dist::ReadExReq          2119514                       # Transaction distribution
system.tol3bus.trans_dist::ReadExResp         2119514                       # Transaction distribution
system.tol3bus.trans_dist::ReadSharedReq      9895927                       # Transaction distribution
system.tol3bus.pkt_count_system.cpu0.l2cache.mem_side::system.l3.cpu_side      9021879                       # Packet count per connected master and slave (bytes)
system.tol3bus.pkt_count_system.cpu1.l2cache.mem_side::system.l3.cpu_side      8967109                       # Packet count per connected master and slave (bytes)
system.tol3bus.pkt_count_system.cpu2.l2cache.mem_side::system.l3.cpu_side      9019681                       # Packet count per connected master and slave (bytes)
system.tol3bus.pkt_count_system.cpu3.l2cache.mem_side::system.l3.cpu_side      9037926                       # Packet count per connected master and slave (bytes)
system.tol3bus.pkt_count::total              36046595                       # Packet count per connected master and slave (bytes)
system.tol3bus.pkt_size_system.cpu0.l2cache.mem_side::system.l3.cpu_side    271057728                       # Cumulative packet size per connected master and slave (bytes)
system.tol3bus.pkt_size_system.cpu1.l2cache.mem_side::system.l3.cpu_side    269934016                       # Cumulative packet size per connected master and slave (bytes)
system.tol3bus.pkt_size_system.cpu2.l2cache.mem_side::system.l3.cpu_side    271110080                       # Cumulative packet size per connected master and slave (bytes)
system.tol3bus.pkt_size_system.cpu3.l2cache.mem_side::system.l3.cpu_side    272185984                       # Cumulative packet size per connected master and slave (bytes)
system.tol3bus.pkt_size::total             1084287808                       # Cumulative packet size per connected master and slave (bytes)
system.tol3bus.snoops                         9144430                       # Total snoops (count)
system.tol3bus.snoopTraffic                 132004544                       # Total snoop traffic (bytes)
system.tol3bus.snoop_fanout::samples         21159871                       # Request fanout histogram
system.tol3bus.snoop_fanout::mean            0.007485                       # Request fanout histogram
system.tol3bus.snoop_fanout::stdev           0.086193                       # Request fanout histogram
system.tol3bus.snoop_fanout::underflows             0      0.00%      0.00% # Request fanout histogram
system.tol3bus.snoop_fanout::0               21001485     99.25%     99.25% # Request fanout histogram
system.tol3bus.snoop_fanout::1                 158386      0.75%    100.00% # Request fanout histogram
system.tol3bus.snoop_fanout::2                      0      0.00%    100.00% # Request fanout histogram
system.tol3bus.snoop_fanout::3                      0      0.00%    100.00% # Request fanout histogram
system.tol3bus.snoop_fanout::4                      0      0.00%    100.00% # Request fanout histogram
system.tol3bus.snoop_fanout::overflows              0      0.00%    100.00% # Request fanout histogram
system.tol3bus.snoop_fanout::min_value              0                       # Request fanout histogram
system.tol3bus.snoop_fanout::max_value              1                       # Request fanout histogram
system.tol3bus.snoop_fanout::total           21159871                       # Request fanout histogram
system.tol3bus.reqLayer0.occupancy        37917602939                       # Layer occupancy (ticks)
system.tol3bus.reqLayer0.utilization             44.3                       # Layer utilization (%)
system.tol3bus.respLayer0.occupancy        9588591325                       # Layer occupancy (ticks)
system.tol3bus.respLayer0.utilization            11.2                       # Layer utilization (%)
system.tol3bus.respLayer1.occupancy        9535077795                       # Layer occupancy (ticks)
system.tol3bus.respLayer1.utilization            11.1                       # Layer utilization (%)
system.tol3bus.respLayer2.occupancy        9586395067                       # Layer occupancy (ticks)
system.tol3bus.respLayer2.utilization            11.2                       # Layer utilization (%)
system.tol3bus.respLayer3.occupancy        9607647772                       # Layer occupancy (ticks)
system.tol3bus.respLayer3.utilization            11.2                       # Layer utilization (%)

---------- End Simulation Statistics   ----------
