
---------- Begin Simulation Statistics ----------
sim_seconds                                  0.003312                       # Number of seconds simulated
sim_ticks                                  3311537814                       # Number of ticks simulated
final_tick                                 3311537814                       # Number of ticks from beginning of simulation (restored from checkpoints and never reset)
sim_freq                                 1000000000000                       # Frequency of simulated ticks
host_inst_rate                                 164439                       # Simulator instruction rate (inst/s)
host_op_rate                                   290050                       # Simulator op (including micro ops) rate (op/s)
host_tick_rate                               14266724                       # Simulator tick rate (ticks/s)
host_mem_usage                               33840552                       # Number of bytes of host memory used
host_seconds                                   232.12                       # Real time elapsed on the host
sim_insts                                    38168998                       # Number of instructions simulated
sim_ops                                      67325265                       # Number of ops (including micro ops) simulated
system.voltage_domain.voltage                       1                       # Voltage in Volts
system.clk_domain.clock                          1000                       # Clock period in ticks
system.mem_ctrls.pwrStateResidencyTicks::UNDEFINED   3311537814                       # Cumulative time (in ticks) in various power states
system.mem_ctrls.bytes_read::cpu0.inst          65216                       # Number of bytes read from this memory
system.mem_ctrls.bytes_read::cpu0.data        1928064                       # Number of bytes read from this memory
system.mem_ctrls.bytes_read::cpu1.inst          65472                       # Number of bytes read from this memory
system.mem_ctrls.bytes_read::cpu1.data        1928704                       # Number of bytes read from this memory
system.mem_ctrls.bytes_read::cpu2.inst          65408                       # Number of bytes read from this memory
system.mem_ctrls.bytes_read::cpu2.data        1928896                       # Number of bytes read from this memory
system.mem_ctrls.bytes_read::cpu3.inst          65472                       # Number of bytes read from this memory
system.mem_ctrls.bytes_read::cpu3.data        1930304                       # Number of bytes read from this memory
system.mem_ctrls.bytes_read::total            7977536                       # Number of bytes read from this memory
system.mem_ctrls.bytes_inst_read::cpu0.inst        65216                       # Number of instructions bytes read from this memory
system.mem_ctrls.bytes_inst_read::cpu1.inst        65472                       # Number of instructions bytes read from this memory
system.mem_ctrls.bytes_inst_read::cpu2.inst        65408                       # Number of instructions bytes read from this memory
system.mem_ctrls.bytes_inst_read::cpu3.inst        65472                       # Number of instructions bytes read from this memory
system.mem_ctrls.bytes_inst_read::total        261568                       # Number of instructions bytes read from this memory
system.mem_ctrls.bytes_written::writebacks       182336                       # Number of bytes written to this memory
system.mem_ctrls.bytes_written::total          182336                       # Number of bytes written to this memory
system.mem_ctrls.num_reads::cpu0.inst            1019                       # Number of read requests responded to by this memory
system.mem_ctrls.num_reads::cpu0.data           30126                       # Number of read requests responded to by this memory
system.mem_ctrls.num_reads::cpu1.inst            1023                       # Number of read requests responded to by this memory
system.mem_ctrls.num_reads::cpu1.data           30136                       # Number of read requests responded to by this memory
system.mem_ctrls.num_reads::cpu2.inst            1022                       # Number of read requests responded to by this memory
system.mem_ctrls.num_reads::cpu2.data           30139                       # Number of read requests responded to by this memory
system.mem_ctrls.num_reads::cpu3.inst            1023                       # Number of read requests responded to by this memory
system.mem_ctrls.num_reads::cpu3.data           30161                       # Number of read requests responded to by this memory
system.mem_ctrls.num_reads::total              124649                       # Number of read requests responded to by this memory
system.mem_ctrls.num_writes::writebacks          2849                       # Number of write requests responded to by this memory
system.mem_ctrls.num_writes::total               2849                       # Number of write requests responded to by this memory
system.mem_ctrls.bw_read::cpu0.inst          19693569                       # Total read bandwidth from this memory (bytes/s)
system.mem_ctrls.bw_read::cpu0.data         582226177                       # Total read bandwidth from this memory (bytes/s)
system.mem_ctrls.bw_read::cpu1.inst          19770875                       # Total read bandwidth from this memory (bytes/s)
system.mem_ctrls.bw_read::cpu1.data         582419440                       # Total read bandwidth from this memory (bytes/s)
system.mem_ctrls.bw_read::cpu2.inst          19751549                       # Total read bandwidth from this memory (bytes/s)
system.mem_ctrls.bw_read::cpu2.data         582477419                       # Total read bandwidth from this memory (bytes/s)
system.mem_ctrls.bw_read::cpu3.inst          19770875                       # Total read bandwidth from this memory (bytes/s)
system.mem_ctrls.bw_read::cpu3.data         582902599                       # Total read bandwidth from this memory (bytes/s)
system.mem_ctrls.bw_read::total            2409012504                       # Total read bandwidth from this memory (bytes/s)
system.mem_ctrls.bw_inst_read::cpu0.inst     19693569                       # Instruction read bandwidth from this memory (bytes/s)
system.mem_ctrls.bw_inst_read::cpu1.inst     19770875                       # Instruction read bandwidth from this memory (bytes/s)
system.mem_ctrls.bw_inst_read::cpu2.inst     19751549                       # Instruction read bandwidth from this memory (bytes/s)
system.mem_ctrls.bw_inst_read::cpu3.inst     19770875                       # Instruction read bandwidth from this memory (bytes/s)
system.mem_ctrls.bw_inst_read::total         78986868                       # Instruction read bandwidth from this memory (bytes/s)
system.mem_ctrls.bw_write::writebacks        55060824                       # Write bandwidth from this memory (bytes/s)
system.mem_ctrls.bw_write::total             55060824                       # Write bandwidth from this memory (bytes/s)
system.mem_ctrls.bw_total::writebacks        55060824                       # Total bandwidth to/from this memory (bytes/s)
system.mem_ctrls.bw_total::cpu0.inst         19693569                       # Total bandwidth to/from this memory (bytes/s)
system.mem_ctrls.bw_total::cpu0.data        582226177                       # Total bandwidth to/from this memory (bytes/s)
system.mem_ctrls.bw_total::cpu1.inst         19770875                       # Total bandwidth to/from this memory (bytes/s)
system.mem_ctrls.bw_total::cpu1.data        582419440                       # Total bandwidth to/from this memory (bytes/s)
system.mem_ctrls.bw_total::cpu2.inst         19751549                       # Total bandwidth to/from this memory (bytes/s)
system.mem_ctrls.bw_total::cpu2.data        582477419                       # Total bandwidth to/from this memory (bytes/s)
system.mem_ctrls.bw_total::cpu3.inst         19770875                       # Total bandwidth to/from this memory (bytes/s)
system.mem_ctrls.bw_total::cpu3.data        582902599                       # Total bandwidth to/from this memory (bytes/s)
system.mem_ctrls.bw_total::total           2464073327                       # Total bandwidth to/from this memory (bytes/s)
system.pwrStateResidencyTicks::UNDEFINED   3311537814                       # Cumulative time (in ticks) in various power states
system.cpu0.branchPred.lookups                2217677                       # Number of BP lookups
system.cpu0.branchPred.condPredicted          2217677                       # Number of conditional branches predicted
system.cpu0.branchPred.condIncorrect            90074                       # Number of conditional branches incorrect
system.cpu0.branchPred.BTBLookups             1739632                       # Number of BTB lookups
system.cpu0.branchPred.BTBHits                      0                       # Number of BTB hits
system.cpu0.branchPred.BTBCorrect                   0                       # Number of correct BTB predictions (this stat may not work properly.
system.cpu0.branchPred.BTBHitPct             0.000000                       # BTB Hit Percentage
system.cpu0.branchPred.usedRAS                 122375                       # Number of times the RAS was used to get a target.
system.cpu0.branchPred.RASInCorrect              9269                       # Number of incorrect RAS predictions.
system.cpu0.branchPred.indirectLookups        1739632                       # Number of indirect predictor lookups.
system.cpu0.branchPred.indirectHits           1098511                       # Number of indirect target hits.
system.cpu0.branchPred.indirectMisses          641121                       # Number of indirect misses.
system.cpu0.branchPredindirectMispredicted        46447                       # Number of mispredicted indirect branches.
system.cpu_voltage_domain.voltage                   1                       # Voltage in Volts
system.cpu_clk_domain.clock                       333                       # Clock period in ticks
system.cpu0.dtb.walker.pwrStateResidencyTicks::UNDEFINED   3311537814                       # Cumulative time (in ticks) in various power states
system.cpu0.dtb.rdAccesses                    3458771                       # TLB accesses on read requests
system.cpu0.dtb.wrAccesses                    1176846                       # TLB accesses on write requests
system.cpu0.dtb.rdMisses                        10391                       # TLB misses on read requests
system.cpu0.dtb.wrMisses                         1730                       # TLB misses on write requests
system.cpu0.apic_clk_domain.clock                5328                       # Clock period in ticks
system.cpu0.interrupts.pwrStateResidencyTicks::UNDEFINED   3311537814                       # Cumulative time (in ticks) in various power states
system.cpu0.itb.walker.pwrStateResidencyTicks::UNDEFINED   3311537814                       # Cumulative time (in ticks) in various power states
system.cpu0.itb.rdAccesses                          0                       # TLB accesses on read requests
system.cpu0.itb.wrAccesses                    1276789                       # TLB accesses on write requests
system.cpu0.itb.rdMisses                            0                       # TLB misses on read requests
system.cpu0.itb.wrMisses                          245                       # TLB misses on write requests
system.cpu0.workload.numSyscalls                   79                       # Number of system calls
system.cpu0.pwrStateResidencyTicks::ON     3311537814                       # Cumulative time (in ticks) in various power states
system.cpu0.numCycles                         9944559                       # number of cpu cycles simulated
system.cpu0.numWorkItemsStarted                     0                       # number of work items this cpu started
system.cpu0.numWorkItemsCompleted                   0                       # number of work items this cpu completed
system.cpu0.fetch.icacheStallCycles           1361857                       # Number of cycles fetch is stalled on an Icache miss
system.cpu0.fetch.Insts                      13120294                       # Number of instructions fetch has processed
system.cpu0.fetch.Branches                    2217677                       # Number of branches that fetch encountered
system.cpu0.fetch.predictedBranches           1220886                       # Number of branches that fetch has predicted taken
system.cpu0.fetch.Cycles                      8400614                       # Number of cycles fetch has run and was not squashing or blocked
system.cpu0.fetch.SquashCycles                 180588                       # Number of cycles fetch has spent squashing
system.cpu0.fetch.TlbCycles                        12                       # Number of cycles fetch has spent waiting for tlb
system.cpu0.fetch.MiscStallCycles                 105                       # Number of cycles fetch has spent waiting on interrupts, or bad addresses, or out of MSHRs
system.cpu0.fetch.PendingTrapStallCycles          995                       # Number of stall cycles due to pending traps
system.cpu0.fetch.PendingQuiesceStallCycles            8                       # Number of stall cycles due to pending quiesce instructions
system.cpu0.fetch.IcacheWaitRetryStallCycles           25                       # Number of stall cycles due to full MSHR
system.cpu0.fetch.CacheLines                  1276615                       # Number of cache lines fetched
system.cpu0.fetch.IcacheSquashes                19379                       # Number of outstanding Icache misses that were squashed
system.cpu0.fetch.rateDist::samples           9853910                       # Number of instructions fetched each cycle (Total)
system.cpu0.fetch.rateDist::mean             2.368393                       # Number of instructions fetched each cycle (Total)
system.cpu0.fetch.rateDist::stdev            3.341469                       # Number of instructions fetched each cycle (Total)
system.cpu0.fetch.rateDist::underflows              0      0.00%      0.00% # Number of instructions fetched each cycle (Total)
system.cpu0.fetch.rateDist::0                 6243257     63.36%     63.36% # Number of instructions fetched each cycle (Total)
system.cpu0.fetch.rateDist::1                  102553      1.04%     64.40% # Number of instructions fetched each cycle (Total)
system.cpu0.fetch.rateDist::2                  163202      1.66%     66.06% # Number of instructions fetched each cycle (Total)
system.cpu0.fetch.rateDist::3                  129596      1.32%     67.37% # Number of instructions fetched each cycle (Total)
system.cpu0.fetch.rateDist::4                  183186      1.86%     69.23% # Number of instructions fetched each cycle (Total)
system.cpu0.fetch.rateDist::5                  355824      3.61%     72.84% # Number of instructions fetched each cycle (Total)
system.cpu0.fetch.rateDist::6                  647798      6.57%     79.41% # Number of instructions fetched each cycle (Total)
system.cpu0.fetch.rateDist::7                  106420      1.08%     80.49% # Number of instructions fetched each cycle (Total)
system.cpu0.fetch.rateDist::8                 1922074     19.51%    100.00% # Number of instructions fetched each cycle (Total)
system.cpu0.fetch.rateDist::overflows               0      0.00%    100.00% # Number of instructions fetched each cycle (Total)
system.cpu0.fetch.rateDist::min_value               0                       # Number of instructions fetched each cycle (Total)
system.cpu0.fetch.rateDist::max_value               8                       # Number of instructions fetched each cycle (Total)
system.cpu0.fetch.rateDist::total             9853910                       # Number of instructions fetched each cycle (Total)
system.cpu0.fetch.branchRate                 0.223004                       # Number of branch fetches per cycle
system.cpu0.fetch.rate                       1.319344                       # Number of inst fetches per cycle
system.cpu0.decode.IdleCycles                 1234710                       # Number of cycles decode is idle
system.cpu0.decode.BlockedCycles              5199373                       # Number of cycles decode is blocked
system.cpu0.decode.RunCycles                  3137477                       # Number of cycles decode is running
system.cpu0.decode.UnblockCycles               192056                       # Number of cycles decode is unblocking
system.cpu0.decode.SquashCycles                 90294                       # Number of cycles decode is squashing
system.cpu0.decode.DecodedInsts              22634708                       # Number of instructions handled by decode
system.cpu0.rename.SquashCycles                 90294                       # Number of cycles rename is squashing
system.cpu0.rename.IdleCycles                 1364323                       # Number of cycles rename is idle
system.cpu0.rename.BlockCycles                2110220                       # Number of cycles rename is blocking
system.cpu0.rename.serializeStallCycles          8086                       # count of cycles rename stalled for serializing inst
system.cpu0.rename.RunCycles                  3181380                       # Number of cycles rename is running
system.cpu0.rename.UnblockCycles              3099607                       # Number of cycles rename is unblocking
system.cpu0.rename.RenamedInsts              22170832                       # Number of instructions processed by rename
system.cpu0.rename.ROBFullEvents                12331                       # Number of times rename has blocked due to ROB full
system.cpu0.rename.IQFullEvents                 62530                       # Number of times rename has blocked due to IQ full
system.cpu0.rename.LQFullEvents                 29198                       # Number of times rename has blocked due to LQ full
system.cpu0.rename.SQFullEvents               2939176                       # Number of times rename has blocked due to SQ full
system.cpu0.rename.RenamedOperands           27442030                       # Number of destination operands rename has renamed
system.cpu0.rename.RenameLookups             56017808                       # Number of register rename lookups that rename has made
system.cpu0.rename.int_rename_lookups        35240476                       # Number of integer rename lookups
system.cpu0.rename.fp_rename_lookups           269931                       # Number of floating rename lookups
system.cpu0.rename.CommittedMaps             22045444                       # Number of HB maps that are committed
system.cpu0.rename.UndoneMaps                 5396469                       # Number of HB maps that are undone due to squashing
system.cpu0.rename.serializingInsts               422                       # count of serializing insts renamed
system.cpu0.rename.tempSerializingInsts           431                       # count of temporary serializing insts renamed
system.cpu0.rename.skidInsts                  1022753                       # count of insts added to the skid buffer
system.cpu0.memDep0.insertedLoads             3645558                       # Number of loads inserted to the mem dependence unit.
system.cpu0.memDep0.insertedStores            1299829                       # Number of stores inserted to the mem dependence unit.
system.cpu0.memDep0.conflictingLoads           130095                       # Number of conflicting loads.
system.cpu0.memDep0.conflictingStores           15471                       # Number of conflicting stores.
system.cpu0.iq.iqInstsAdded                  21318542                       # Number of instructions added to the IQ (excludes non-spec)
system.cpu0.iq.iqNonSpecInstsAdded              13230                       # Number of non-speculative instructions added to the IQ
system.cpu0.iq.iqInstsIssued                 20324020                       # Number of instructions issued
system.cpu0.iq.iqSquashedInstsIssued            28964                       # Number of squashed instructions issued
system.cpu0.iq.iqSquashedInstsExamined        3700231                       # Number of squashed instructions iterated over during squash; mainly for profiling
system.cpu0.iq.iqSquashedOperandsExamined      4144623                       # Number of squashed operands that are examined and possibly removed from graph
system.cpu0.iq.iqSquashedNonSpecRemoved         13031                       # Number of squashed non-spec instructions that were removed
system.cpu0.iq.issued_per_cycle::samples      9853910                       # Number of insts issued each cycle
system.cpu0.iq.issued_per_cycle::mean        2.062534                       # Number of insts issued each cycle
system.cpu0.iq.issued_per_cycle::stdev       2.622895                       # Number of insts issued each cycle
system.cpu0.iq.issued_per_cycle::underflows            0      0.00%      0.00% # Number of insts issued each cycle
system.cpu0.iq.issued_per_cycle::0            5281102     53.59%     53.59% # Number of insts issued each cycle
system.cpu0.iq.issued_per_cycle::1             480447      4.88%     58.47% # Number of insts issued each cycle
system.cpu0.iq.issued_per_cycle::2             437991      4.44%     62.91% # Number of insts issued each cycle
system.cpu0.iq.issued_per_cycle::3             677383      6.87%     69.79% # Number of insts issued each cycle
system.cpu0.iq.issued_per_cycle::4             650518      6.60%     76.39% # Number of insts issued each cycle
system.cpu0.iq.issued_per_cycle::5             833189      8.46%     84.85% # Number of insts issued each cycle
system.cpu0.iq.issued_per_cycle::6             627574      6.37%     91.21% # Number of insts issued each cycle
system.cpu0.iq.issued_per_cycle::7             523667      5.31%     96.53% # Number of insts issued each cycle
system.cpu0.iq.issued_per_cycle::8             342039      3.47%    100.00% # Number of insts issued each cycle
system.cpu0.iq.issued_per_cycle::overflows            0      0.00%    100.00% # Number of insts issued each cycle
system.cpu0.iq.issued_per_cycle::min_value            0                       # Number of insts issued each cycle
system.cpu0.iq.issued_per_cycle::max_value            8                       # Number of insts issued each cycle
system.cpu0.iq.issued_per_cycle::total        9853910                       # Number of insts issued each cycle
system.cpu0.iq.fu_full::No_OpClass                  0      0.00%      0.00% # attempts to use FU when none available
system.cpu0.iq.fu_full::IntAlu                 337060     88.89%     88.89% # attempts to use FU when none available
system.cpu0.iq.fu_full::IntMult                     0      0.00%     88.89% # attempts to use FU when none available
system.cpu0.iq.fu_full::IntDiv                      0      0.00%     88.89% # attempts to use FU when none available
system.cpu0.iq.fu_full::FloatAdd                   13      0.00%     88.90% # attempts to use FU when none available
system.cpu0.iq.fu_full::FloatCmp                    0      0.00%     88.90% # attempts to use FU when none available
system.cpu0.iq.fu_full::FloatCvt                    0      0.00%     88.90% # attempts to use FU when none available
system.cpu0.iq.fu_full::FloatMult                   0      0.00%     88.90% # attempts to use FU when none available
system.cpu0.iq.fu_full::FloatMultAcc                0      0.00%     88.90% # attempts to use FU when none available
system.cpu0.iq.fu_full::FloatDiv                    0      0.00%     88.90% # attempts to use FU when none available
system.cpu0.iq.fu_full::FloatMisc                   0      0.00%     88.90% # attempts to use FU when none available
system.cpu0.iq.fu_full::FloatSqrt                   0      0.00%     88.90% # attempts to use FU when none available
system.cpu0.iq.fu_full::SimdAdd                     0      0.00%     88.90% # attempts to use FU when none available
system.cpu0.iq.fu_full::SimdAddAcc                  0      0.00%     88.90% # attempts to use FU when none available
system.cpu0.iq.fu_full::SimdAlu                     0      0.00%     88.90% # attempts to use FU when none available
system.cpu0.iq.fu_full::SimdCmp                     0      0.00%     88.90% # attempts to use FU when none available
system.cpu0.iq.fu_full::SimdCvt                     0      0.00%     88.90% # attempts to use FU when none available
system.cpu0.iq.fu_full::SimdMisc                    0      0.00%     88.90% # attempts to use FU when none available
system.cpu0.iq.fu_full::SimdMult                    0      0.00%     88.90% # attempts to use FU when none available
system.cpu0.iq.fu_full::SimdMultAcc                 0      0.00%     88.90% # attempts to use FU when none available
system.cpu0.iq.fu_full::SimdShift                   0      0.00%     88.90% # attempts to use FU when none available
system.cpu0.iq.fu_full::SimdShiftAcc                0      0.00%     88.90% # attempts to use FU when none available
system.cpu0.iq.fu_full::SimdSqrt                    0      0.00%     88.90% # attempts to use FU when none available
system.cpu0.iq.fu_full::SimdFloatAdd                0      0.00%     88.90% # attempts to use FU when none available
system.cpu0.iq.fu_full::SimdFloatAlu                0      0.00%     88.90% # attempts to use FU when none available
system.cpu0.iq.fu_full::SimdFloatCmp                0      0.00%     88.90% # attempts to use FU when none available
system.cpu0.iq.fu_full::SimdFloatCvt                0      0.00%     88.90% # attempts to use FU when none available
system.cpu0.iq.fu_full::SimdFloatDiv                0      0.00%     88.90% # attempts to use FU when none available
system.cpu0.iq.fu_full::SimdFloatMisc               0      0.00%     88.90% # attempts to use FU when none available
system.cpu0.iq.fu_full::SimdFloatMult               0      0.00%     88.90% # attempts to use FU when none available
system.cpu0.iq.fu_full::SimdFloatMultAcc            0      0.00%     88.90% # attempts to use FU when none available
system.cpu0.iq.fu_full::SimdFloatSqrt               0      0.00%     88.90% # attempts to use FU when none available
system.cpu0.iq.fu_full::MemRead                 31594      8.33%     97.23% # attempts to use FU when none available
system.cpu0.iq.fu_full::MemWrite                10447      2.76%     99.98% # attempts to use FU when none available
system.cpu0.iq.fu_full::FloatMemRead               14      0.00%     99.99% # attempts to use FU when none available
system.cpu0.iq.fu_full::FloatMemWrite              46      0.01%    100.00% # attempts to use FU when none available
system.cpu0.iq.fu_full::IprAccess                   0      0.00%    100.00% # attempts to use FU when none available
system.cpu0.iq.fu_full::InstPrefetch                0      0.00%    100.00% # attempts to use FU when none available
system.cpu0.iq.FU_type_0::No_OpClass            69214      0.34%      0.34% # Type of FU issued
system.cpu0.iq.FU_type_0::IntAlu             14997865     73.79%     74.13% # Type of FU issued
system.cpu0.iq.FU_type_0::IntMult              494942      2.44%     76.57% # Type of FU issued
system.cpu0.iq.FU_type_0::IntDiv                   44      0.00%     76.57% # Type of FU issued
system.cpu0.iq.FU_type_0::FloatAdd              48787      0.24%     76.81% # Type of FU issued
system.cpu0.iq.FU_type_0::FloatCmp                  0      0.00%     76.81% # Type of FU issued
system.cpu0.iq.FU_type_0::FloatCvt                  0      0.00%     76.81% # Type of FU issued
system.cpu0.iq.FU_type_0::FloatMult                 0      0.00%     76.81% # Type of FU issued
system.cpu0.iq.FU_type_0::FloatMultAcc              0      0.00%     76.81% # Type of FU issued
system.cpu0.iq.FU_type_0::FloatDiv                  0      0.00%     76.81% # Type of FU issued
system.cpu0.iq.FU_type_0::FloatMisc                 0      0.00%     76.81% # Type of FU issued
system.cpu0.iq.FU_type_0::FloatSqrt                 0      0.00%     76.81% # Type of FU issued
system.cpu0.iq.FU_type_0::SimdAdd                   0      0.00%     76.81% # Type of FU issued
system.cpu0.iq.FU_type_0::SimdAddAcc                0      0.00%     76.81% # Type of FU issued
system.cpu0.iq.FU_type_0::SimdAlu                   0      0.00%     76.81% # Type of FU issued
system.cpu0.iq.FU_type_0::SimdCmp                   0      0.00%     76.81% # Type of FU issued
system.cpu0.iq.FU_type_0::SimdCvt                   0      0.00%     76.81% # Type of FU issued
system.cpu0.iq.FU_type_0::SimdMisc                  0      0.00%     76.81% # Type of FU issued
system.cpu0.iq.FU_type_0::SimdMult                  0      0.00%     76.81% # Type of FU issued
system.cpu0.iq.FU_type_0::SimdMultAcc               0      0.00%     76.81% # Type of FU issued
system.cpu0.iq.FU_type_0::SimdShift                 0      0.00%     76.81% # Type of FU issued
system.cpu0.iq.FU_type_0::SimdShiftAcc              0      0.00%     76.81% # Type of FU issued
system.cpu0.iq.FU_type_0::SimdSqrt                  0      0.00%     76.81% # Type of FU issued
system.cpu0.iq.FU_type_0::SimdFloatAdd              0      0.00%     76.81% # Type of FU issued
system.cpu0.iq.FU_type_0::SimdFloatAlu              0      0.00%     76.81% # Type of FU issued
system.cpu0.iq.FU_type_0::SimdFloatCmp              0      0.00%     76.81% # Type of FU issued
system.cpu0.iq.FU_type_0::SimdFloatCvt              0      0.00%     76.81% # Type of FU issued
system.cpu0.iq.FU_type_0::SimdFloatDiv              0      0.00%     76.81% # Type of FU issued
system.cpu0.iq.FU_type_0::SimdFloatMisc             0      0.00%     76.81% # Type of FU issued
system.cpu0.iq.FU_type_0::SimdFloatMult             0      0.00%     76.81% # Type of FU issued
system.cpu0.iq.FU_type_0::SimdFloatMultAcc            0      0.00%     76.81% # Type of FU issued
system.cpu0.iq.FU_type_0::SimdFloatSqrt             0      0.00%     76.81% # Type of FU issued
system.cpu0.iq.FU_type_0::MemRead             3491537     17.18%     93.99% # Type of FU issued
system.cpu0.iq.FU_type_0::MemWrite            1075103      5.29%     99.28% # Type of FU issued
system.cpu0.iq.FU_type_0::FloatMemRead          15193      0.07%     99.35% # Type of FU issued
system.cpu0.iq.FU_type_0::FloatMemWrite        131335      0.65%    100.00% # Type of FU issued
system.cpu0.iq.FU_type_0::IprAccess                 0      0.00%    100.00% # Type of FU issued
system.cpu0.iq.FU_type_0::InstPrefetch              0      0.00%    100.00% # Type of FU issued
system.cpu0.iq.FU_type_0::total              20324020                       # Type of FU issued
system.cpu0.iq.rate                          2.043733                       # Inst issue rate
system.cpu0.iq.fu_busy_cnt                     379174                       # FU busy when requested
system.cpu0.iq.fu_busy_rate                  0.018656                       # FU busy rate (busy events/executed inst)
system.cpu0.iq.int_inst_queue_reads          50516600                       # Number of integer instruction queue reads
system.cpu0.iq.int_inst_queue_writes         24774543                       # Number of integer instruction queue writes
system.cpu0.iq.int_inst_queue_wakeup_accesses     19813744                       # Number of integer instruction queue wakeup accesses
system.cpu0.iq.fp_inst_queue_reads             393482                       # Number of floating instruction queue reads
system.cpu0.iq.fp_inst_queue_writes            257604                       # Number of floating instruction queue writes
system.cpu0.iq.fp_inst_queue_wakeup_accesses       192271                       # Number of floating instruction queue wakeup accesses
system.cpu0.iq.vec_inst_queue_reads                 0                       # Number of vector instruction queue reads
system.cpu0.iq.vec_inst_queue_writes                0                       # Number of vector instruction queue writes
system.cpu0.iq.vec_inst_queue_wakeup_accesses            0                       # Number of vector instruction queue wakeup accesses
system.cpu0.iq.int_alu_accesses              20437213                       # Number of integer alu accesses
system.cpu0.iq.fp_alu_accesses                 196767                       # Number of floating point alu accesses
system.cpu0.iq.vec_alu_accesses                     0                       # Number of vector alu accesses
system.cpu0.iew.lsq.thread0.forwLoads          379195                       # Number of loads that had data forwarded from stores
system.cpu0.iew.lsq.thread0.invAddrLoads            0                       # Number of loads ignored due to an invalid address
system.cpu0.iew.lsq.thread0.squashedLoads       637577                       # Number of loads squashed
system.cpu0.iew.lsq.thread0.ignoredResponses          901                       # Number of memory responses ignored because the instruction is squashed
system.cpu0.iew.lsq.thread0.memOrderViolation          175                       # Number of memory ordering violations
system.cpu0.iew.lsq.thread0.squashedStores       226446                       # Number of stores squashed
system.cpu0.iew.lsq.thread0.invAddrSwpfs            0                       # Number of software prefetches ignored due to an invalid address
system.cpu0.iew.lsq.thread0.blockedLoads            0                       # Number of blocked loads due to partial load-store forwarding
system.cpu0.iew.lsq.thread0.rescheduledLoads          515                       # Number of loads that were rescheduled
system.cpu0.iew.lsq.thread0.cacheBlocked         4299                       # Number of times an access to memory failed due to the cache being blocked
system.cpu0.iew.iewIdleCycles                       0                       # Number of cycles IEW is idle
system.cpu0.iew.iewSquashCycles                 90294                       # Number of cycles IEW is squashing
system.cpu0.iew.iewBlockCycles                 446770                       # Number of cycles IEW is blocking
system.cpu0.iew.iewUnblockCycles              1487559                       # Number of cycles IEW is unblocking
system.cpu0.iew.iewDispatchedInsts           21331772                       # Number of instructions dispatched to IQ
system.cpu0.iew.iewDispSquashedInsts             3626                       # Number of squashed instructions skipped by dispatch
system.cpu0.iew.iewDispLoadInsts              3645558                       # Number of dispatched load instructions
system.cpu0.iew.iewDispStoreInsts             1299829                       # Number of dispatched store instructions
system.cpu0.iew.iewDispNonSpecInsts              4665                       # Number of dispatched non-speculative instructions
system.cpu0.iew.iewIQFullEvents                    70                       # Number of times the IQ has become full, causing a stall
system.cpu0.iew.iewLSQFullEvents              1487235                       # Number of times the LSQ has become full, causing a stall
system.cpu0.iew.memOrderViolationEvents           175                       # Number of memory order violations
system.cpu0.iew.predictedTakenIncorrect         31332                       # Number of branches that were predicted taken incorrectly
system.cpu0.iew.predictedNotTakenIncorrect        76693                       # Number of branches that were predicted not taken incorrectly
system.cpu0.iew.branchMispredicts              108025                       # Number of branch mispredicts detected at execute
system.cpu0.iew.iewExecutedInsts             20114328                       # Number of executed instructions
system.cpu0.iew.iewExecLoadInsts              3458390                       # Number of load instructions executed
system.cpu0.iew.iewExecSquashedInsts           209686                       # Number of squashed instructions skipped in execute
system.cpu0.iew.exec_swp                            0                       # number of swp insts executed
system.cpu0.iew.exec_nop                            0                       # number of nop insts executed
system.cpu0.iew.exec_refs                     4635198                       # number of memory reference insts executed
system.cpu0.iew.exec_branches                 1820837                       # Number of branches executed
system.cpu0.iew.exec_stores                   1176808                       # Number of stores executed
system.cpu0.iew.exec_rate                    2.022647                       # Inst execution rate
system.cpu0.iew.wb_sent                      20062389                       # cumulative count of insts sent to commit
system.cpu0.iew.wb_count                     20006015                       # cumulative count of insts written-back
system.cpu0.iew.wb_producers                 15250916                       # num instructions producing a value
system.cpu0.iew.wb_consumers                 23357637                       # num instructions consuming a value
system.cpu0.iew.wb_rate                      2.011755                       # insts written-back per cycle
system.cpu0.iew.wb_fanout                    0.652931                       # average fanout of values written-back
system.cpu0.commit.commitSquashedInsts        3700648                       # The number of squashed insts skipped by commit
system.cpu0.commit.commitNonSpecStalls            199                       # The number of times commit has been forced to stall to communicate backwards
system.cpu0.commit.branchMispredicts            90175                       # The number of times a branch was mispredicted
system.cpu0.commit.committed_per_cycle::samples      9318291                       # Number of insts commited each cycle
system.cpu0.commit.committed_per_cycle::mean     1.892136                       # Number of insts commited each cycle
system.cpu0.commit.committed_per_cycle::stdev     2.953376                       # Number of insts commited each cycle
system.cpu0.commit.committed_per_cycle::underflows            0      0.00%      0.00% # Number of insts commited each cycle
system.cpu0.commit.committed_per_cycle::0      5506035     59.09%     59.09% # Number of insts commited each cycle
system.cpu0.commit.committed_per_cycle::1       934044     10.02%     69.11% # Number of insts commited each cycle
system.cpu0.commit.committed_per_cycle::2       339014      3.64%     72.75% # Number of insts commited each cycle
system.cpu0.commit.committed_per_cycle::3       433372      4.65%     77.40% # Number of insts commited each cycle
system.cpu0.commit.committed_per_cycle::4       414378      4.45%     81.85% # Number of insts commited each cycle
system.cpu0.commit.committed_per_cycle::5        68253      0.73%     82.58% # Number of insts commited each cycle
system.cpu0.commit.committed_per_cycle::6       101853      1.09%     83.67% # Number of insts commited each cycle
system.cpu0.commit.committed_per_cycle::7        61344      0.66%     84.33% # Number of insts commited each cycle
system.cpu0.commit.committed_per_cycle::8      1459998     15.67%    100.00% # Number of insts commited each cycle
system.cpu0.commit.committed_per_cycle::overflows            0      0.00%    100.00% # Number of insts commited each cycle
system.cpu0.commit.committed_per_cycle::min_value            0                       # Number of insts commited each cycle
system.cpu0.commit.committed_per_cycle::max_value            8                       # Number of insts commited each cycle
system.cpu0.commit.committed_per_cycle::total      9318291                       # Number of insts commited each cycle
system.cpu0.commit.committedInsts            10000003                       # Number of instructions committed
system.cpu0.commit.committedOps              17631475                       # Number of ops (including micro ops) committed
system.cpu0.commit.swp_count                        0                       # Number of s/w prefetches committed
system.cpu0.commit.refs                       4081351                       # Number of memory references committed
system.cpu0.commit.loads                      3007969                       # Number of loads committed
system.cpu0.commit.membars                         80                       # Number of memory barriers committed
system.cpu0.commit.branches                   1652568                       # Number of branches committed
system.cpu0.commit.vec_insts                        0                       # Number of committed Vector instructions.
system.cpu0.commit.fp_insts                    182446                       # Number of committed floating point instructions.
system.cpu0.commit.int_insts                 17549812                       # Number of committed integer instructions.
system.cpu0.commit.function_calls               82460                       # Number of function calls committed.
system.cpu0.commit.op_class_0::No_OpClass        51785      0.29%      0.29% # Class of committed instruction
system.cpu0.commit.op_class_0::IntAlu        13019254     73.84%     74.13% # Class of committed instruction
system.cpu0.commit.op_class_0::IntMult         438188      2.49%     76.62% # Class of committed instruction
system.cpu0.commit.op_class_0::IntDiv              35      0.00%     76.62% # Class of committed instruction
system.cpu0.commit.op_class_0::FloatAdd         40862      0.23%     76.85% # Class of committed instruction
system.cpu0.commit.op_class_0::FloatCmp             0      0.00%     76.85% # Class of committed instruction
system.cpu0.commit.op_class_0::FloatCvt             0      0.00%     76.85% # Class of committed instruction
system.cpu0.commit.op_class_0::FloatMult            0      0.00%     76.85% # Class of committed instruction
system.cpu0.commit.op_class_0::FloatMultAcc            0      0.00%     76.85% # Class of committed instruction
system.cpu0.commit.op_class_0::FloatDiv             0      0.00%     76.85% # Class of committed instruction
system.cpu0.commit.op_class_0::FloatMisc            0      0.00%     76.85% # Class of committed instruction
system.cpu0.commit.op_class_0::FloatSqrt            0      0.00%     76.85% # Class of committed instruction
system.cpu0.commit.op_class_0::SimdAdd              0      0.00%     76.85% # Class of committed instruction
system.cpu0.commit.op_class_0::SimdAddAcc            0      0.00%     76.85% # Class of committed instruction
system.cpu0.commit.op_class_0::SimdAlu              0      0.00%     76.85% # Class of committed instruction
system.cpu0.commit.op_class_0::SimdCmp              0      0.00%     76.85% # Class of committed instruction
system.cpu0.commit.op_class_0::SimdCvt              0      0.00%     76.85% # Class of committed instruction
system.cpu0.commit.op_class_0::SimdMisc             0      0.00%     76.85% # Class of committed instruction
system.cpu0.commit.op_class_0::SimdMult             0      0.00%     76.85% # Class of committed instruction
system.cpu0.commit.op_class_0::SimdMultAcc            0      0.00%     76.85% # Class of committed instruction
system.cpu0.commit.op_class_0::SimdShift            0      0.00%     76.85% # Class of committed instruction
system.cpu0.commit.op_class_0::SimdShiftAcc            0      0.00%     76.85% # Class of committed instruction
system.cpu0.commit.op_class_0::SimdSqrt             0      0.00%     76.85% # Class of committed instruction
system.cpu0.commit.op_class_0::SimdFloatAdd            0      0.00%     76.85% # Class of committed instruction
system.cpu0.commit.op_class_0::SimdFloatAlu            0      0.00%     76.85% # Class of committed instruction
system.cpu0.commit.op_class_0::SimdFloatCmp            0      0.00%     76.85% # Class of committed instruction
system.cpu0.commit.op_class_0::SimdFloatCvt            0      0.00%     76.85% # Class of committed instruction
system.cpu0.commit.op_class_0::SimdFloatDiv            0      0.00%     76.85% # Class of committed instruction
system.cpu0.commit.op_class_0::SimdFloatMisc            0      0.00%     76.85% # Class of committed instruction
system.cpu0.commit.op_class_0::SimdFloatMult            0      0.00%     76.85% # Class of committed instruction
system.cpu0.commit.op_class_0::SimdFloatMultAcc            0      0.00%     76.85% # Class of committed instruction
system.cpu0.commit.op_class_0::SimdFloatSqrt            0      0.00%     76.85% # Class of committed instruction
system.cpu0.commit.op_class_0::MemRead        2998874     17.01%     93.86% # Class of committed instruction
system.cpu0.commit.op_class_0::MemWrite        942108      5.34%     99.20% # Class of committed instruction
system.cpu0.commit.op_class_0::FloatMemRead         9095      0.05%     99.26% # Class of committed instruction
system.cpu0.commit.op_class_0::FloatMemWrite       131274      0.74%    100.00% # Class of committed instruction
system.cpu0.commit.op_class_0::IprAccess            0      0.00%    100.00% # Class of committed instruction
system.cpu0.commit.op_class_0::InstPrefetch            0      0.00%    100.00% # Class of committed instruction
system.cpu0.commit.op_class_0::total         17631475                       # Class of committed instruction
system.cpu0.commit.bw_lim_events              1459998                       # number cycles where commit BW limit reached
system.cpu0.rob.rob_reads                    29190416                       # The number of ROB reads
system.cpu0.rob.rob_writes                   43204732                       # The number of ROB writes
system.cpu0.timesIdled                            565                       # Number of times that the entire CPU went into an idle state and unscheduled itself
system.cpu0.idleCycles                          90649                       # Total number of cycles that the CPU has spent unscheduled due to idling
system.cpu0.committedInsts                   10000003                       # Number of Instructions Simulated
system.cpu0.committedOps                     17631475                       # Number of Ops (including micro ops) Simulated
system.cpu0.cpi                              0.994456                       # CPI: Cycles Per Instruction
system.cpu0.cpi_total                        0.994456                       # CPI: Total CPI of All Threads
system.cpu0.ipc                              1.005575                       # IPC: Instructions Per Cycle
system.cpu0.ipc_total                        1.005575                       # IPC: Total IPC of All Threads
system.cpu0.int_regfile_reads                31618268                       # number of integer regfile reads
system.cpu0.int_regfile_writes               17438445                       # number of integer regfile writes
system.cpu0.fp_regfile_reads                   209917                       # number of floating regfile reads
system.cpu0.fp_regfile_writes                   54434                       # number of floating regfile writes
system.cpu0.cc_regfile_reads                  9803751                       # number of cc regfile reads
system.cpu0.cc_regfile_writes                 7507224                       # number of cc regfile writes
system.cpu0.misc_regfile_reads                8373986                       # number of misc regfile reads
system.cpu0.dcache.tags.pwrStateResidencyTicks::UNDEFINED   3311537814                       # Cumulative time (in ticks) in various power states
system.cpu0.dcache.tags.replacements            41869                       # number of replacements
system.cpu0.dcache.tags.tagsinuse          506.544810                       # Cycle average of tags in use
system.cpu0.dcache.tags.total_refs            4071916                       # Total number of references to valid blocks.
system.cpu0.dcache.tags.sampled_refs            42381                       # Sample count of references to valid blocks.
system.cpu0.dcache.tags.avg_refs            96.078809                       # Average number of references to valid blocks.
system.cpu0.dcache.tags.warmup_cycle           150183                       # Cycle when the warmup percentage was hit.
system.cpu0.dcache.tags.occ_blocks::cpu0.data   506.544810                       # Average occupied blocks per requestor
system.cpu0.dcache.tags.occ_percent::cpu0.data     0.989345                       # Average percentage of cache occupancy
system.cpu0.dcache.tags.occ_percent::total     0.989345                       # Average percentage of cache occupancy
system.cpu0.dcache.tags.occ_task_id_blocks::1024          512                       # Occupied blocks per task id
system.cpu0.dcache.tags.age_task_id_blocks_1024::0            1                       # Occupied blocks per task id
system.cpu0.dcache.tags.age_task_id_blocks_1024::1          103                       # Occupied blocks per task id
system.cpu0.dcache.tags.age_task_id_blocks_1024::2          408                       # Occupied blocks per task id
system.cpu0.dcache.tags.occ_task_id_percent::1024            1                       # Percentage of cache occupancy per task id
system.cpu0.dcache.tags.tag_accesses         33171453                       # Number of tag accesses
system.cpu0.dcache.tags.data_accesses        33171453                       # Number of data accesses
system.cpu0.dcache.pwrStateResidencyTicks::UNDEFINED   3311537814                       # Cumulative time (in ticks) in various power states
system.cpu0.dcache.ReadReq_hits::cpu0.data      3028142                       # number of ReadReq hits
system.cpu0.dcache.ReadReq_hits::total        3028142                       # number of ReadReq hits
system.cpu0.dcache.WriteReq_hits::cpu0.data      1040044                       # number of WriteReq hits
system.cpu0.dcache.WriteReq_hits::total       1040044                       # number of WriteReq hits
system.cpu0.dcache.SoftPFReq_hits::cpu0.data            1                       # number of SoftPFReq hits
system.cpu0.dcache.SoftPFReq_hits::total            1                       # number of SoftPFReq hits
system.cpu0.dcache.demand_hits::cpu0.data      4068186                       # number of demand (read+write) hits
system.cpu0.dcache.demand_hits::total         4068186                       # number of demand (read+write) hits
system.cpu0.dcache.overall_hits::cpu0.data      4068187                       # number of overall hits
system.cpu0.dcache.overall_hits::total        4068187                       # number of overall hits
system.cpu0.dcache.ReadReq_misses::cpu0.data        34869                       # number of ReadReq misses
system.cpu0.dcache.ReadReq_misses::total        34869                       # number of ReadReq misses
system.cpu0.dcache.WriteReq_misses::cpu0.data        33339                       # number of WriteReq misses
system.cpu0.dcache.WriteReq_misses::total        33339                       # number of WriteReq misses
system.cpu0.dcache.SoftPFReq_misses::cpu0.data         4739                       # number of SoftPFReq misses
system.cpu0.dcache.SoftPFReq_misses::total         4739                       # number of SoftPFReq misses
system.cpu0.dcache.demand_misses::cpu0.data        68208                       # number of demand (read+write) misses
system.cpu0.dcache.demand_misses::total         68208                       # number of demand (read+write) misses
system.cpu0.dcache.overall_misses::cpu0.data        72947                       # number of overall misses
system.cpu0.dcache.overall_misses::total        72947                       # number of overall misses
system.cpu0.dcache.ReadReq_miss_latency::cpu0.data   1132605261                       # number of ReadReq miss cycles
system.cpu0.dcache.ReadReq_miss_latency::total   1132605261                       # number of ReadReq miss cycles
system.cpu0.dcache.WriteReq_miss_latency::cpu0.data   1602893500                       # number of WriteReq miss cycles
system.cpu0.dcache.WriteReq_miss_latency::total   1602893500                       # number of WriteReq miss cycles
system.cpu0.dcache.demand_miss_latency::cpu0.data   2735498761                       # number of demand (read+write) miss cycles
system.cpu0.dcache.demand_miss_latency::total   2735498761                       # number of demand (read+write) miss cycles
system.cpu0.dcache.overall_miss_latency::cpu0.data   2735498761                       # number of overall miss cycles
system.cpu0.dcache.overall_miss_latency::total   2735498761                       # number of overall miss cycles
system.cpu0.dcache.ReadReq_accesses::cpu0.data      3063011                       # number of ReadReq accesses(hits+misses)
system.cpu0.dcache.ReadReq_accesses::total      3063011                       # number of ReadReq accesses(hits+misses)
system.cpu0.dcache.WriteReq_accesses::cpu0.data      1073383                       # number of WriteReq accesses(hits+misses)
system.cpu0.dcache.WriteReq_accesses::total      1073383                       # number of WriteReq accesses(hits+misses)
system.cpu0.dcache.SoftPFReq_accesses::cpu0.data         4740                       # number of SoftPFReq accesses(hits+misses)
system.cpu0.dcache.SoftPFReq_accesses::total         4740                       # number of SoftPFReq accesses(hits+misses)
system.cpu0.dcache.demand_accesses::cpu0.data      4136394                       # number of demand (read+write) accesses
system.cpu0.dcache.demand_accesses::total      4136394                       # number of demand (read+write) accesses
system.cpu0.dcache.overall_accesses::cpu0.data      4141134                       # number of overall (read+write) accesses
system.cpu0.dcache.overall_accesses::total      4141134                       # number of overall (read+write) accesses
system.cpu0.dcache.ReadReq_miss_rate::cpu0.data     0.011384                       # miss rate for ReadReq accesses
system.cpu0.dcache.ReadReq_miss_rate::total     0.011384                       # miss rate for ReadReq accesses
system.cpu0.dcache.WriteReq_miss_rate::cpu0.data     0.031060                       # miss rate for WriteReq accesses
system.cpu0.dcache.WriteReq_miss_rate::total     0.031060                       # miss rate for WriteReq accesses
system.cpu0.dcache.SoftPFReq_miss_rate::cpu0.data     0.999789                       # miss rate for SoftPFReq accesses
system.cpu0.dcache.SoftPFReq_miss_rate::total     0.999789                       # miss rate for SoftPFReq accesses
system.cpu0.dcache.demand_miss_rate::cpu0.data     0.016490                       # miss rate for demand accesses
system.cpu0.dcache.demand_miss_rate::total     0.016490                       # miss rate for demand accesses
system.cpu0.dcache.overall_miss_rate::cpu0.data     0.017615                       # miss rate for overall accesses
system.cpu0.dcache.overall_miss_rate::total     0.017615                       # miss rate for overall accesses
system.cpu0.dcache.ReadReq_avg_miss_latency::cpu0.data 32481.724770                       # average ReadReq miss latency
system.cpu0.dcache.ReadReq_avg_miss_latency::total 32481.724770                       # average ReadReq miss latency
system.cpu0.dcache.WriteReq_avg_miss_latency::cpu0.data 48078.631633                       # average WriteReq miss latency
system.cpu0.dcache.WriteReq_avg_miss_latency::total 48078.631633                       # average WriteReq miss latency
system.cpu0.dcache.demand_avg_miss_latency::cpu0.data 40105.248079                       # average overall miss latency
system.cpu0.dcache.demand_avg_miss_latency::total 40105.248079                       # average overall miss latency
system.cpu0.dcache.overall_avg_miss_latency::cpu0.data 37499.811658                       # average overall miss latency
system.cpu0.dcache.overall_avg_miss_latency::total 37499.811658                       # average overall miss latency
system.cpu0.dcache.blocked_cycles::no_mshrs       126558                       # number of cycles access was blocked
system.cpu0.dcache.blocked_cycles::no_targets            0                       # number of cycles access was blocked
system.cpu0.dcache.blocked::no_mshrs             3252                       # number of cycles access was blocked
system.cpu0.dcache.blocked::no_targets              0                       # number of cycles access was blocked
system.cpu0.dcache.avg_blocked_cycles::no_mshrs    38.916974                       # average number of cycles each access was blocked
system.cpu0.dcache.avg_blocked_cycles::no_targets          nan                       # average number of cycles each access was blocked
system.cpu0.dcache.writebacks::writebacks        37656                       # number of writebacks
system.cpu0.dcache.writebacks::total            37656                       # number of writebacks
system.cpu0.dcache.ReadReq_mshr_hits::cpu0.data        27133                       # number of ReadReq MSHR hits
system.cpu0.dcache.ReadReq_mshr_hits::total        27133                       # number of ReadReq MSHR hits
system.cpu0.dcache.WriteReq_mshr_hits::cpu0.data           61                       # number of WriteReq MSHR hits
system.cpu0.dcache.WriteReq_mshr_hits::total           61                       # number of WriteReq MSHR hits
system.cpu0.dcache.demand_mshr_hits::cpu0.data        27194                       # number of demand (read+write) MSHR hits
system.cpu0.dcache.demand_mshr_hits::total        27194                       # number of demand (read+write) MSHR hits
system.cpu0.dcache.overall_mshr_hits::cpu0.data        27194                       # number of overall MSHR hits
system.cpu0.dcache.overall_mshr_hits::total        27194                       # number of overall MSHR hits
system.cpu0.dcache.ReadReq_mshr_misses::cpu0.data         7736                       # number of ReadReq MSHR misses
system.cpu0.dcache.ReadReq_mshr_misses::total         7736                       # number of ReadReq MSHR misses
system.cpu0.dcache.WriteReq_mshr_misses::cpu0.data        33278                       # number of WriteReq MSHR misses
system.cpu0.dcache.WriteReq_mshr_misses::total        33278                       # number of WriteReq MSHR misses
system.cpu0.dcache.SoftPFReq_mshr_misses::cpu0.data         4736                       # number of SoftPFReq MSHR misses
system.cpu0.dcache.SoftPFReq_mshr_misses::total         4736                       # number of SoftPFReq MSHR misses
system.cpu0.dcache.demand_mshr_misses::cpu0.data        41014                       # number of demand (read+write) MSHR misses
system.cpu0.dcache.demand_mshr_misses::total        41014                       # number of demand (read+write) MSHR misses
system.cpu0.dcache.overall_mshr_misses::cpu0.data        45750                       # number of overall MSHR misses
system.cpu0.dcache.overall_mshr_misses::total        45750                       # number of overall MSHR misses
system.cpu0.dcache.ReadReq_mshr_miss_latency::cpu0.data    163514322                       # number of ReadReq MSHR miss cycles
system.cpu0.dcache.ReadReq_mshr_miss_latency::total    163514322                       # number of ReadReq MSHR miss cycles
system.cpu0.dcache.WriteReq_mshr_miss_latency::cpu0.data   1577432986                       # number of WriteReq MSHR miss cycles
system.cpu0.dcache.WriteReq_mshr_miss_latency::total   1577432986                       # number of WriteReq MSHR miss cycles
system.cpu0.dcache.SoftPFReq_mshr_miss_latency::cpu0.data    204660801                       # number of SoftPFReq MSHR miss cycles
system.cpu0.dcache.SoftPFReq_mshr_miss_latency::total    204660801                       # number of SoftPFReq MSHR miss cycles
system.cpu0.dcache.demand_mshr_miss_latency::cpu0.data   1740947308                       # number of demand (read+write) MSHR miss cycles
system.cpu0.dcache.demand_mshr_miss_latency::total   1740947308                       # number of demand (read+write) MSHR miss cycles
system.cpu0.dcache.overall_mshr_miss_latency::cpu0.data   1945608109                       # number of overall MSHR miss cycles
system.cpu0.dcache.overall_mshr_miss_latency::total   1945608109                       # number of overall MSHR miss cycles
system.cpu0.dcache.ReadReq_mshr_miss_rate::cpu0.data     0.002526                       # mshr miss rate for ReadReq accesses
system.cpu0.dcache.ReadReq_mshr_miss_rate::total     0.002526                       # mshr miss rate for ReadReq accesses
system.cpu0.dcache.WriteReq_mshr_miss_rate::cpu0.data     0.031003                       # mshr miss rate for WriteReq accesses
system.cpu0.dcache.WriteReq_mshr_miss_rate::total     0.031003                       # mshr miss rate for WriteReq accesses
system.cpu0.dcache.SoftPFReq_mshr_miss_rate::cpu0.data     0.999156                       # mshr miss rate for SoftPFReq accesses
system.cpu0.dcache.SoftPFReq_mshr_miss_rate::total     0.999156                       # mshr miss rate for SoftPFReq accesses
system.cpu0.dcache.demand_mshr_miss_rate::cpu0.data     0.009915                       # mshr miss rate for demand accesses
system.cpu0.dcache.demand_mshr_miss_rate::total     0.009915                       # mshr miss rate for demand accesses
system.cpu0.dcache.overall_mshr_miss_rate::cpu0.data     0.011048                       # mshr miss rate for overall accesses
system.cpu0.dcache.overall_mshr_miss_rate::total     0.011048                       # mshr miss rate for overall accesses
system.cpu0.dcache.ReadReq_avg_mshr_miss_latency::cpu0.data 21136.804809                       # average ReadReq mshr miss latency
system.cpu0.dcache.ReadReq_avg_mshr_miss_latency::total 21136.804809                       # average ReadReq mshr miss latency
system.cpu0.dcache.WriteReq_avg_mshr_miss_latency::cpu0.data 47401.676363                       # average WriteReq mshr miss latency
system.cpu0.dcache.WriteReq_avg_mshr_miss_latency::total 47401.676363                       # average WriteReq mshr miss latency
system.cpu0.dcache.SoftPFReq_avg_mshr_miss_latency::cpu0.data 43213.851562                       # average SoftPFReq mshr miss latency
system.cpu0.dcache.SoftPFReq_avg_mshr_miss_latency::total 43213.851562                       # average SoftPFReq mshr miss latency
system.cpu0.dcache.demand_avg_mshr_miss_latency::cpu0.data 42447.635149                       # average overall mshr miss latency
system.cpu0.dcache.demand_avg_mshr_miss_latency::total 42447.635149                       # average overall mshr miss latency
system.cpu0.dcache.overall_avg_mshr_miss_latency::cpu0.data 42526.953202                       # average overall mshr miss latency
system.cpu0.dcache.overall_avg_mshr_miss_latency::total 42526.953202                       # average overall mshr miss latency
system.cpu0.dtb_walker_cache.tags.pwrStateResidencyTicks::UNDEFINED   3311537814                       # Cumulative time (in ticks) in various power states
system.cpu0.dtb_walker_cache.tags.replacements            0                       # number of replacements
system.cpu0.dtb_walker_cache.tags.tagsinuse            0                       # Cycle average of tags in use
system.cpu0.dtb_walker_cache.tags.total_refs            0                       # Total number of references to valid blocks.
system.cpu0.dtb_walker_cache.tags.sampled_refs            0                       # Sample count of references to valid blocks.
system.cpu0.dtb_walker_cache.tags.avg_refs          nan                       # Average number of references to valid blocks.
system.cpu0.dtb_walker_cache.tags.warmup_cycle            0                       # Cycle when the warmup percentage was hit.
system.cpu0.dtb_walker_cache.tags.tag_accesses            0                       # Number of tag accesses
system.cpu0.dtb_walker_cache.tags.data_accesses            0                       # Number of data accesses
system.cpu0.dtb_walker_cache.pwrStateResidencyTicks::UNDEFINED   3311537814                       # Cumulative time (in ticks) in various power states
system.cpu0.dtb_walker_cache.blocked_cycles::no_mshrs            0                       # number of cycles access was blocked
system.cpu0.dtb_walker_cache.blocked_cycles::no_targets            0                       # number of cycles access was blocked
system.cpu0.dtb_walker_cache.blocked::no_mshrs            0                       # number of cycles access was blocked
system.cpu0.dtb_walker_cache.blocked::no_targets            0                       # number of cycles access was blocked
system.cpu0.dtb_walker_cache.avg_blocked_cycles::no_mshrs          nan                       # average number of cycles each access was blocked
system.cpu0.dtb_walker_cache.avg_blocked_cycles::no_targets          nan                       # average number of cycles each access was blocked
system.cpu0.icache.tags.pwrStateResidencyTicks::UNDEFINED   3311537814                       # Cumulative time (in ticks) in various power states
system.cpu0.icache.tags.replacements              586                       # number of replacements
system.cpu0.icache.tags.tagsinuse          509.417808                       # Cycle average of tags in use
system.cpu0.icache.tags.total_refs            1275235                       # Total number of references to valid blocks.
system.cpu0.icache.tags.sampled_refs             1098                       # Sample count of references to valid blocks.
system.cpu0.icache.tags.avg_refs          1161.416211                       # Average number of references to valid blocks.
system.cpu0.icache.tags.warmup_cycle            76257                       # Cycle when the warmup percentage was hit.
system.cpu0.icache.tags.occ_blocks::cpu0.inst   509.417808                       # Average occupied blocks per requestor
system.cpu0.icache.tags.occ_percent::cpu0.inst     0.994957                       # Average percentage of cache occupancy
system.cpu0.icache.tags.occ_percent::total     0.994957                       # Average percentage of cache occupancy
system.cpu0.icache.tags.occ_task_id_blocks::1024          512                       # Occupied blocks per task id
system.cpu0.icache.tags.age_task_id_blocks_1024::2            5                       # Occupied blocks per task id
system.cpu0.icache.tags.age_task_id_blocks_1024::3          507                       # Occupied blocks per task id
system.cpu0.icache.tags.occ_task_id_percent::1024            1                       # Percentage of cache occupancy per task id
system.cpu0.icache.tags.tag_accesses         10214018                       # Number of tag accesses
system.cpu0.icache.tags.data_accesses        10214018                       # Number of data accesses
system.cpu0.icache.pwrStateResidencyTicks::UNDEFINED   3311537814                       # Cumulative time (in ticks) in various power states
system.cpu0.icache.ReadReq_hits::cpu0.inst      1275235                       # number of ReadReq hits
system.cpu0.icache.ReadReq_hits::total        1275235                       # number of ReadReq hits
system.cpu0.icache.demand_hits::cpu0.inst      1275235                       # number of demand (read+write) hits
system.cpu0.icache.demand_hits::total         1275235                       # number of demand (read+write) hits
system.cpu0.icache.overall_hits::cpu0.inst      1275235                       # number of overall hits
system.cpu0.icache.overall_hits::total        1275235                       # number of overall hits
system.cpu0.icache.ReadReq_misses::cpu0.inst         1380                       # number of ReadReq misses
system.cpu0.icache.ReadReq_misses::total         1380                       # number of ReadReq misses
system.cpu0.icache.demand_misses::cpu0.inst         1380                       # number of demand (read+write) misses
system.cpu0.icache.demand_misses::total          1380                       # number of demand (read+write) misses
system.cpu0.icache.overall_misses::cpu0.inst         1380                       # number of overall misses
system.cpu0.icache.overall_misses::total         1380                       # number of overall misses
system.cpu0.icache.ReadReq_miss_latency::cpu0.inst     84110138                       # number of ReadReq miss cycles
system.cpu0.icache.ReadReq_miss_latency::total     84110138                       # number of ReadReq miss cycles
system.cpu0.icache.demand_miss_latency::cpu0.inst     84110138                       # number of demand (read+write) miss cycles
system.cpu0.icache.demand_miss_latency::total     84110138                       # number of demand (read+write) miss cycles
system.cpu0.icache.overall_miss_latency::cpu0.inst     84110138                       # number of overall miss cycles
system.cpu0.icache.overall_miss_latency::total     84110138                       # number of overall miss cycles
system.cpu0.icache.ReadReq_accesses::cpu0.inst      1276615                       # number of ReadReq accesses(hits+misses)
system.cpu0.icache.ReadReq_accesses::total      1276615                       # number of ReadReq accesses(hits+misses)
system.cpu0.icache.demand_accesses::cpu0.inst      1276615                       # number of demand (read+write) accesses
system.cpu0.icache.demand_accesses::total      1276615                       # number of demand (read+write) accesses
system.cpu0.icache.overall_accesses::cpu0.inst      1276615                       # number of overall (read+write) accesses
system.cpu0.icache.overall_accesses::total      1276615                       # number of overall (read+write) accesses
system.cpu0.icache.ReadReq_miss_rate::cpu0.inst     0.001081                       # miss rate for ReadReq accesses
system.cpu0.icache.ReadReq_miss_rate::total     0.001081                       # miss rate for ReadReq accesses
system.cpu0.icache.demand_miss_rate::cpu0.inst     0.001081                       # miss rate for demand accesses
system.cpu0.icache.demand_miss_rate::total     0.001081                       # miss rate for demand accesses
system.cpu0.icache.overall_miss_rate::cpu0.inst     0.001081                       # miss rate for overall accesses
system.cpu0.icache.overall_miss_rate::total     0.001081                       # miss rate for overall accesses
system.cpu0.icache.ReadReq_avg_miss_latency::cpu0.inst 60949.375362                       # average ReadReq miss latency
system.cpu0.icache.ReadReq_avg_miss_latency::total 60949.375362                       # average ReadReq miss latency
system.cpu0.icache.demand_avg_miss_latency::cpu0.inst 60949.375362                       # average overall miss latency
system.cpu0.icache.demand_avg_miss_latency::total 60949.375362                       # average overall miss latency
system.cpu0.icache.overall_avg_miss_latency::cpu0.inst 60949.375362                       # average overall miss latency
system.cpu0.icache.overall_avg_miss_latency::total 60949.375362                       # average overall miss latency
system.cpu0.icache.blocked_cycles::no_mshrs          767                       # number of cycles access was blocked
system.cpu0.icache.blocked_cycles::no_targets            0                       # number of cycles access was blocked
system.cpu0.icache.blocked::no_mshrs                9                       # number of cycles access was blocked
system.cpu0.icache.blocked::no_targets              0                       # number of cycles access was blocked
system.cpu0.icache.avg_blocked_cycles::no_mshrs    85.222222                       # average number of cycles each access was blocked
system.cpu0.icache.avg_blocked_cycles::no_targets          nan                       # average number of cycles each access was blocked
system.cpu0.icache.writebacks::writebacks          586                       # number of writebacks
system.cpu0.icache.writebacks::total              586                       # number of writebacks
system.cpu0.icache.ReadReq_mshr_hits::cpu0.inst          282                       # number of ReadReq MSHR hits
system.cpu0.icache.ReadReq_mshr_hits::total          282                       # number of ReadReq MSHR hits
system.cpu0.icache.demand_mshr_hits::cpu0.inst          282                       # number of demand (read+write) MSHR hits
system.cpu0.icache.demand_mshr_hits::total          282                       # number of demand (read+write) MSHR hits
system.cpu0.icache.overall_mshr_hits::cpu0.inst          282                       # number of overall MSHR hits
system.cpu0.icache.overall_mshr_hits::total          282                       # number of overall MSHR hits
system.cpu0.icache.ReadReq_mshr_misses::cpu0.inst         1098                       # number of ReadReq MSHR misses
system.cpu0.icache.ReadReq_mshr_misses::total         1098                       # number of ReadReq MSHR misses
system.cpu0.icache.demand_mshr_misses::cpu0.inst         1098                       # number of demand (read+write) MSHR misses
system.cpu0.icache.demand_mshr_misses::total         1098                       # number of demand (read+write) MSHR misses
system.cpu0.icache.overall_mshr_misses::cpu0.inst         1098                       # number of overall MSHR misses
system.cpu0.icache.overall_mshr_misses::total         1098                       # number of overall MSHR misses
system.cpu0.icache.ReadReq_mshr_miss_latency::cpu0.inst     69033231                       # number of ReadReq MSHR miss cycles
system.cpu0.icache.ReadReq_mshr_miss_latency::total     69033231                       # number of ReadReq MSHR miss cycles
system.cpu0.icache.demand_mshr_miss_latency::cpu0.inst     69033231                       # number of demand (read+write) MSHR miss cycles
system.cpu0.icache.demand_mshr_miss_latency::total     69033231                       # number of demand (read+write) MSHR miss cycles
system.cpu0.icache.overall_mshr_miss_latency::cpu0.inst     69033231                       # number of overall MSHR miss cycles
system.cpu0.icache.overall_mshr_miss_latency::total     69033231                       # number of overall MSHR miss cycles
system.cpu0.icache.ReadReq_mshr_miss_rate::cpu0.inst     0.000860                       # mshr miss rate for ReadReq accesses
system.cpu0.icache.ReadReq_mshr_miss_rate::total     0.000860                       # mshr miss rate for ReadReq accesses
system.cpu0.icache.demand_mshr_miss_rate::cpu0.inst     0.000860                       # mshr miss rate for demand accesses
system.cpu0.icache.demand_mshr_miss_rate::total     0.000860                       # mshr miss rate for demand accesses
system.cpu0.icache.overall_mshr_miss_rate::cpu0.inst     0.000860                       # mshr miss rate for overall accesses
system.cpu0.icache.overall_mshr_miss_rate::total     0.000860                       # mshr miss rate for overall accesses
system.cpu0.icache.ReadReq_avg_mshr_miss_latency::cpu0.inst 62871.795082                       # average ReadReq mshr miss latency
system.cpu0.icache.ReadReq_avg_mshr_miss_latency::total 62871.795082                       # average ReadReq mshr miss latency
system.cpu0.icache.demand_avg_mshr_miss_latency::cpu0.inst 62871.795082                       # average overall mshr miss latency
system.cpu0.icache.demand_avg_mshr_miss_latency::total 62871.795082                       # average overall mshr miss latency
system.cpu0.icache.overall_avg_mshr_miss_latency::cpu0.inst 62871.795082                       # average overall mshr miss latency
system.cpu0.icache.overall_avg_mshr_miss_latency::total 62871.795082                       # average overall mshr miss latency
system.cpu0.itb_walker_cache.tags.pwrStateResidencyTicks::UNDEFINED   3311537814                       # Cumulative time (in ticks) in various power states
system.cpu0.itb_walker_cache.tags.replacements            0                       # number of replacements
system.cpu0.itb_walker_cache.tags.tagsinuse            0                       # Cycle average of tags in use
system.cpu0.itb_walker_cache.tags.total_refs            0                       # Total number of references to valid blocks.
system.cpu0.itb_walker_cache.tags.sampled_refs            0                       # Sample count of references to valid blocks.
system.cpu0.itb_walker_cache.tags.avg_refs          nan                       # Average number of references to valid blocks.
system.cpu0.itb_walker_cache.tags.warmup_cycle            0                       # Cycle when the warmup percentage was hit.
system.cpu0.itb_walker_cache.tags.tag_accesses            0                       # Number of tag accesses
system.cpu0.itb_walker_cache.tags.data_accesses            0                       # Number of data accesses
system.cpu0.itb_walker_cache.pwrStateResidencyTicks::UNDEFINED   3311537814                       # Cumulative time (in ticks) in various power states
system.cpu0.itb_walker_cache.blocked_cycles::no_mshrs            0                       # number of cycles access was blocked
system.cpu0.itb_walker_cache.blocked_cycles::no_targets            0                       # number of cycles access was blocked
system.cpu0.itb_walker_cache.blocked::no_mshrs            0                       # number of cycles access was blocked
system.cpu0.itb_walker_cache.blocked::no_targets            0                       # number of cycles access was blocked
system.cpu0.itb_walker_cache.avg_blocked_cycles::no_mshrs          nan                       # average number of cycles each access was blocked
system.cpu0.itb_walker_cache.avg_blocked_cycles::no_targets          nan                       # average number of cycles each access was blocked
system.cpu0.l2cache.tags.pwrStateResidencyTicks::UNDEFINED   3311537814                       # Cumulative time (in ticks) in various power states
system.cpu0.l2cache.tags.replacements           35687                       # number of replacements
system.cpu0.l2cache.tags.tagsinuse        3953.582035                       # Cycle average of tags in use
system.cpu0.l2cache.tags.total_refs             49499                       # Total number of references to valid blocks.
system.cpu0.l2cache.tags.sampled_refs           39783                       # Sample count of references to valid blocks.
system.cpu0.l2cache.tags.avg_refs            1.244225                       # Average number of references to valid blocks.
system.cpu0.l2cache.tags.warmup_cycle           73000                       # Cycle when the warmup percentage was hit.
system.cpu0.l2cache.tags.occ_blocks::writebacks    19.209908                       # Average occupied blocks per requestor
system.cpu0.l2cache.tags.occ_blocks::cpu0.inst    66.454288                       # Average occupied blocks per requestor
system.cpu0.l2cache.tags.occ_blocks::cpu0.data  3867.917839                       # Average occupied blocks per requestor
system.cpu0.l2cache.tags.occ_percent::writebacks     0.004690                       # Average percentage of cache occupancy
system.cpu0.l2cache.tags.occ_percent::cpu0.inst     0.016224                       # Average percentage of cache occupancy
system.cpu0.l2cache.tags.occ_percent::cpu0.data     0.944316                       # Average percentage of cache occupancy
system.cpu0.l2cache.tags.occ_percent::total     0.965230                       # Average percentage of cache occupancy
system.cpu0.l2cache.tags.occ_task_id_blocks::1024         4096                       # Occupied blocks per task id
system.cpu0.l2cache.tags.age_task_id_blocks_1024::1           24                       # Occupied blocks per task id
system.cpu0.l2cache.tags.age_task_id_blocks_1024::2         3872                       # Occupied blocks per task id
system.cpu0.l2cache.tags.age_task_id_blocks_1024::3          200                       # Occupied blocks per task id
system.cpu0.l2cache.tags.occ_task_id_percent::1024            1                       # Percentage of cache occupancy per task id
[...]
system.l3.demand_mshr_miss_latency::cpu2.inst     51783533                       # number of demand (read+write) MSHR miss cycles
system.l3.demand_mshr_miss_latency::cpu2.data   1448838761                       # number of demand (read+write) MSHR miss cycles
system.l3.demand_mshr_miss_latency::cpu3.inst     54733383                       # number of demand (read+write) MSHR miss cycles
system.l3.demand_mshr_miss_latency::cpu3.data   1341133421                       # number of demand (read+write) MSHR miss cycles
system.l3.demand_mshr_miss_latency::total   5751014747                       # number of demand (read+write) MSHR miss cycles
system.l3.overall_mshr_miss_latency::cpu0.inst     52948025                       # number of overall MSHR miss cycles
system.l3.overall_mshr_miss_latency::cpu0.data   1320266708                       # number of overall MSHR miss cycles
system.l3.overall_mshr_miss_latency::cpu1.inst     54649339                       # number of overall MSHR miss cycles
system.l3.overall_mshr_miss_latency::cpu1.data   1426661577                       # number of overall MSHR miss cycles
system.l3.overall_mshr_miss_latency::cpu2.inst     51783533                       # number of overall MSHR miss cycles
system.l3.overall_mshr_miss_latency::cpu2.data   1448838761                       # number of overall MSHR miss cycles
system.l3.overall_mshr_miss_latency::cpu3.inst     54733383                       # number of overall MSHR miss cycles
system.l3.overall_mshr_miss_latency::cpu3.data   1341133421                       # number of overall MSHR miss cycles
system.l3.overall_mshr_miss_latency::total   5751014747                       # number of overall MSHR miss cycles
system.l3.CleanEvict_mshr_miss_rate::writebacks          inf                       # mshr miss rate for CleanEvict accesses
system.l3.CleanEvict_mshr_miss_rate::total          inf                       # mshr miss rate for CleanEvict accesses
system.l3.ReadExReq_mshr_miss_rate::cpu0.data     0.925257                       # mshr miss rate for ReadExReq accesses
system.l3.ReadExReq_mshr_miss_rate::cpu1.data     0.923418                       # mshr miss rate for ReadExReq accesses
system.l3.ReadExReq_mshr_miss_rate::cpu2.data     0.924991                       # mshr miss rate for ReadExReq accesses
system.l3.ReadExReq_mshr_miss_rate::cpu3.data     0.924132                       # mshr miss rate for ReadExReq accesses
system.l3.ReadExReq_mshr_miss_rate::total     0.924449                       # mshr miss rate for ReadExReq accesses
system.l3.ReadSharedReq_mshr_miss_rate::cpu0.inst     0.977927                       # mshr miss rate for ReadSharedReq accesses
system.l3.ReadSharedReq_mshr_miss_rate::cpu0.data     0.373251                       # mshr miss rate for ReadSharedReq accesses
system.l3.ReadSharedReq_mshr_miss_rate::cpu1.inst     0.980825                       # mshr miss rate for ReadSharedReq accesses
system.l3.ReadSharedReq_mshr_miss_rate::cpu1.data     0.385821                       # mshr miss rate for ReadSharedReq accesses
system.l3.ReadSharedReq_mshr_miss_rate::cpu2.inst     0.973333                       # mshr miss rate for ReadSharedReq accesses
system.l3.ReadSharedReq_mshr_miss_rate::cpu2.data     0.378582                       # mshr miss rate for ReadSharedReq accesses
system.l3.ReadSharedReq_mshr_miss_rate::cpu3.inst     0.976145                       # mshr miss rate for ReadSharedReq accesses
system.l3.ReadSharedReq_mshr_miss_rate::cpu3.data     0.376889                       # mshr miss rate for ReadSharedReq accesses
system.l3.ReadSharedReq_mshr_miss_rate::total     0.436150                       # mshr miss rate for ReadSharedReq accesses
system.l3.demand_mshr_miss_rate::cpu0.inst     0.977927                       # mshr miss rate for demand accesses
system.l3.demand_mshr_miss_rate::cpu0.data     0.782737                       # mshr miss rate for demand accesses
system.l3.demand_mshr_miss_rate::cpu1.inst     0.980825                       # mshr miss rate for demand accesses
system.l3.demand_mshr_miss_rate::cpu1.data     0.787993                       # mshr miss rate for demand accesses
system.l3.demand_mshr_miss_rate::cpu2.inst     0.973333                       # mshr miss rate for demand accesses
system.l3.demand_mshr_miss_rate::cpu2.data     0.785381                       # mshr miss rate for demand accesses
system.l3.demand_mshr_miss_rate::cpu3.inst     0.976145                       # mshr miss rate for demand accesses
system.l3.demand_mshr_miss_rate::cpu3.data     0.783097                       # mshr miss rate for demand accesses
system.l3.demand_mshr_miss_rate::total       0.789893                       # mshr miss rate for demand accesses
system.l3.overall_mshr_miss_rate::cpu0.inst     0.977927                       # mshr miss rate for overall accesses
system.l3.overall_mshr_miss_rate::cpu0.data     0.782737                       # mshr miss rate for overall accesses
system.l3.overall_mshr_miss_rate::cpu1.inst     0.980825                       # mshr miss rate for overall accesses
system.l3.overall_mshr_miss_rate::cpu1.data     0.787993                       # mshr miss rate for overall accesses
system.l3.overall_mshr_miss_rate::cpu2.inst     0.973333                       # mshr miss rate for overall accesses
system.l3.overall_mshr_miss_rate::cpu2.data     0.785381                       # mshr miss rate for overall accesses
system.l3.overall_mshr_miss_rate::cpu3.inst     0.976145                       # mshr miss rate for overall accesses
system.l3.overall_mshr_miss_rate::cpu3.data     0.783097                       # mshr miss rate for overall accesses
system.l3.overall_mshr_miss_rate::total      0.789893                       # mshr miss rate for overall accesses
system.l3.ReadExReq_avg_mshr_miss_latency::cpu0.data 42687.523640                       # average ReadExReq mshr miss latency
system.l3.ReadExReq_avg_mshr_miss_latency::cpu1.data 45932.667626                       # average ReadExReq mshr miss latency
system.l3.ReadExReq_avg_mshr_miss_latency::cpu2.data 46210.724676                       # average ReadExReq mshr miss latency
system.l3.ReadExReq_avg_mshr_miss_latency::cpu3.data 43166.138683                       # average ReadExReq mshr miss latency
system.l3.ReadExReq_avg_mshr_miss_latency::total 44499.414882                       # average ReadExReq mshr miss latency
system.l3.ReadSharedReq_avg_mshr_miss_latency::cpu0.inst 51960.770363                       # average ReadSharedReq mshr miss latency
system.l3.ReadSharedReq_avg_mshr_miss_latency::cpu0.data 51925.153950                       # average ReadSharedReq mshr miss latency
system.l3.ReadSharedReq_avg_mshr_miss_latency::cpu1.inst 53420.663734                       # average ReadSharedReq mshr miss latency
system.l3.ReadSharedReq_avg_mshr_miss_latency::cpu1.data 57349.053269                       # average ReadSharedReq mshr miss latency
system.l3.ReadSharedReq_avg_mshr_miss_latency::cpu2.inst 50668.818982                       # average ReadSharedReq mshr miss latency
system.l3.ReadSharedReq_avg_mshr_miss_latency::cpu2.data 61322.182112                       # average ReadSharedReq mshr miss latency
system.l3.ReadSharedReq_avg_mshr_miss_latency::cpu3.inst 53502.818182                       # average ReadSharedReq mshr miss latency
system.l3.ReadSharedReq_avg_mshr_miss_latency::cpu3.data 53644.489976                       # average ReadSharedReq mshr miss latency
system.l3.ReadSharedReq_avg_mshr_miss_latency::total 55266.428556                       # average ReadSharedReq mshr miss latency
system.l3.demand_avg_mshr_miss_latency::cpu0.inst 51960.770363                       # average overall mshr miss latency
system.l3.demand_avg_mshr_miss_latency::cpu0.data 43824.825997                       # average overall mshr miss latency
system.l3.demand_avg_mshr_miss_latency::cpu1.inst 53420.663734                       # average overall mshr miss latency
system.l3.demand_avg_mshr_miss_latency::cpu1.data 47340.774389                       # average overall mshr miss latency
system.l3.demand_avg_mshr_miss_latency::cpu2.inst 50668.818982                       # average overall mshr miss latency
system.l3.demand_avg_mshr_miss_latency::cpu2.data 48071.892266                       # average overall mshr miss latency
system.l3.demand_avg_mshr_miss_latency::cpu3.inst 53502.818182                       # average overall mshr miss latency
system.l3.demand_avg_mshr_miss_latency::cpu3.data 44465.814164                       # average overall mshr miss latency
system.l3.demand_avg_mshr_miss_latency::total 46137.672561                       # average overall mshr miss latency
system.l3.overall_avg_mshr_miss_latency::cpu0.inst 51960.770363                       # average overall mshr miss latency
system.l3.overall_avg_mshr_miss_latency::cpu0.data 43824.825997                       # average overall mshr miss latency
system.l3.overall_avg_mshr_miss_latency::cpu1.inst 53420.663734                       # average overall mshr miss latency
system.l3.overall_avg_mshr_miss_latency::cpu1.data 47340.774389                       # average overall mshr miss latency
system.l3.overall_avg_mshr_miss_latency::cpu2.inst 50668.818982                       # average overall mshr miss latency
system.l3.overall_avg_mshr_miss_latency::cpu2.data 48071.892266                       # average overall mshr miss latency
system.l3.overall_avg_mshr_miss_latency::cpu3.inst 53502.818182                       # average overall mshr miss latency
system.l3.overall_avg_mshr_miss_latency::cpu3.data 44465.814164                       # average overall mshr miss latency
system.l3.overall_avg_mshr_miss_latency::total 46137.672561                       # average overall mshr miss latency
system.membus.snoop_filter.tot_requests        128186                       # Total number of requests made to the snoop filter.
system.membus.snoop_filter.hit_single_requests         3537                       # Number of requests hitting in the snoop filter with a single holder of the requested data.
system.membus.snoop_filter.hit_multi_requests            0                       # Number of requests hitting in the snoop filter with multiple (>1) holders of the requested data.
system.membus.snoop_filter.tot_snoops               0                       # Total number of snoops made to the snoop filter.
system.membus.snoop_filter.hit_single_snoops            0                       # Number of snoops hitting in the snoop filter with a single holder of the requested data.
system.membus.snoop_filter.hit_multi_snoops            0                       # Number of snoops hitting in the snoop filter with multiple (>1) holders of the requested data.
system.membus.pwrStateResidencyTicks::UNDEFINED   3311537814                       # Cumulative time (in ticks) in various power states
system.membus.trans_dist::ReadResp              18966                       # Transaction distribution
system.membus.trans_dist::WritebackDirty         2849                       # Transaction distribution
system.membus.trans_dist::CleanEvict              688                       # Transaction distribution
system.membus.trans_dist::ReadExReq            105683                       # Transaction distribution
system.membus.trans_dist::ReadExResp           105683                       # Transaction distribution
system.membus.trans_dist::ReadSharedReq         18966                       # Transaction distribution
system.membus.pkt_count_system.l3.mem_side::system.mem_ctrls.port       252835                       # Packet count per connected master and slave (bytes)
system.membus.pkt_count_system.l3.mem_side::total       252835                       # Packet count per connected master and slave (bytes)
system.membus.pkt_count::total                 252835                       # Packet count per connected master and slave (bytes)
system.membus.pkt_size_system.l3.mem_side::system.mem_ctrls.port      8159872                       # Cumulative packet size per connected master and slave (bytes)
system.membus.pkt_size_system.l3.mem_side::total      8159872                       # Cumulative packet size per connected master and slave (bytes)
system.membus.pkt_size::total                 8159872                       # Cumulative packet size per connected master and slave (bytes)
system.membus.snoops                                0                       # Total snoops (count)
system.membus.snoopTraffic                          0                       # Total snoop traffic (bytes)
system.membus.snoop_fanout::samples            124649                       # Request fanout histogram
system.membus.snoop_fanout::mean                    0                       # Request fanout histogram
system.membus.snoop_fanout::stdev                   0                       # Request fanout histogram
system.membus.snoop_fanout::underflows              0      0.00%      0.00% # Request fanout histogram
system.membus.snoop_fanout::0                  124649    100.00%    100.00% # Request fanout histogram
system.membus.snoop_fanout::1                       0      0.00%    100.00% # Request fanout histogram
system.membus.snoop_fanout::overflows               0      0.00%    100.00% # Request fanout histogram
system.membus.snoop_fanout::min_value               0                       # Request fanout histogram
system.membus.snoop_fanout::max_value               0                       # Request fanout histogram
system.membus.snoop_fanout::total              124649                       # Request fanout histogram
system.membus.reqLayer8.occupancy           178341815                       # Layer occupancy (ticks)
system.membus.reqLayer8.utilization               5.4                       # Layer utilization (%)
system.membus.respLayer1.occupancy          669083697                       # Layer occupancy (ticks)
system.membus.respLayer1.utilization             20.2                       # Layer utilization (%)
system.tol3bus.snoop_filter.tot_requests       297230                       # Total number of requests made to the snoop filter.
system.tol3bus.snoop_filter.hit_single_requests       139425                       # Number of requests hitting in the snoop filter with a single holder of the requested data.
system.tol3bus.snoop_filter.hit_multi_requests            0                       # Number of requests hitting in the snoop filter with multiple (>1) holders of the requested data.
system.tol3bus.snoop_filter.tot_snoops            513                       # Total number of snoops made to the snoop filter.
system.tol3bus.snoop_filter.hit_single_snoops          513                       # Number of snoops hitting in the snoop filter with a single holder of the requested data.
system.tol3bus.snoop_filter.hit_multi_snoops            0                       # Number of snoops hitting in the snoop filter with multiple (>1) holders of the requested data.
system.tol3bus.pwrStateResidencyTicks::UNDEFINED   3311537814                       # Cumulative time (in ticks) in various power states
system.tol3bus.trans_dist::ReadResp             43485                       # Transaction distribution
system.tol3bus.trans_dist::WritebackDirty       133590                       # Transaction distribution
system.tol3bus.trans_dist::CleanEvict            9884                       # Transaction distribution
system.tol3bus.trans_dist::ReadExReq           114320                       # Transaction distribution
system.tol3bus.trans_dist::ReadExResp          114320                       # Transaction distribution
system.tol3bus.trans_dist::ReadSharedReq        43485                       # Transaction distribution
system.tol3bus.pkt_count_system.cpu0.l2cache.mem_side::system.l3.cpu_side       113989                       # Packet count per connected master and slave (bytes)
system.tol3bus.pkt_count_system.cpu1.l2cache.mem_side::system.l3.cpu_side       113267                       # Packet count per connected master and slave (bytes)
system.tol3bus.pkt_count_system.cpu2.l2cache.mem_side::system.l3.cpu_side       113676                       # Packet count per connected master and slave (bytes)
system.tol3bus.pkt_count_system.cpu3.l2cache.mem_side::system.l3.cpu_side       114103                       # Packet count per connected master and slave (bytes)
system.tol3bus.pkt_count::total                455035                       # Packet count per connected master and slave (bytes)
system.tol3bus.pkt_size_system.cpu0.l2cache.mem_side::system.l3.cpu_side      4627776                       # Cumulative packet size per connected master and slave (bytes)
system.tol3bus.pkt_size_system.cpu1.l2cache.mem_side::system.l3.cpu_side      4597120                       # Cumulative packet size per connected master and slave (bytes)
system.tol3bus.pkt_size_system.cpu2.l2cache.mem_side::system.l3.cpu_side      4612416                       # Cumulative packet size per connected master and slave (bytes)
system.tol3bus.pkt_size_system.cpu3.l2cache.mem_side::system.l3.cpu_side      4629632                       # Cumulative packet size per connected master and slave (bytes)
system.tol3bus.pkt_size::total               18466944                       # Cumulative packet size per connected master and slave (bytes)
system.tol3bus.snoops                            4049                       # Total snoops (count)
system.tol3bus.snoopTraffic                    182336                       # Total snoop traffic (bytes)
system.tol3bus.snoop_fanout::samples           161854                       # Request fanout histogram
system.tol3bus.snoop_fanout::mean            0.003170                       # Request fanout histogram
system.tol3bus.snoop_fanout::stdev           0.056209                       # Request fanout histogram
system.tol3bus.snoop_fanout::underflows             0      0.00%      0.00% # Request fanout histogram
system.tol3bus.snoop_fanout::0                 161341     99.68%     99.68% # Request fanout histogram
system.tol3bus.snoop_fanout::1                    513      0.32%    100.00% # Request fanout histogram
system.tol3bus.snoop_fanout::2                      0      0.00%    100.00% # Request fanout histogram
system.tol3bus.snoop_fanout::3                      0      0.00%    100.00% # Request fanout histogram
system.tol3bus.snoop_fanout::4                      0      0.00%    100.00% # Request fanout histogram
system.tol3bus.snoop_fanout::overflows              0      0.00%    100.00% # Request fanout histogram
system.tol3bus.snoop_fanout::min_value              0                       # Request fanout histogram
system.tol3bus.snoop_fanout::max_value              1                       # Request fanout histogram
system.tol3bus.snoop_fanout::total             161854                       # Request fanout histogram
system.tol3bus.reqLayer0.occupancy          662906873                       # Layer occupancy (ticks)
system.tol3bus.reqLayer0.utilization             20.0                       # Layer utilization (%)
system.tol3bus.respLayer0.occupancy         126240155                       # Layer occupancy (ticks)
system.tol3bus.respLayer0.utilization             3.8                       # Layer utilization (%)
system.tol3bus.respLayer1.occupancy         125505201                       # Layer occupancy (ticks)
system.tol3bus.respLayer1.utilization             3.8                       # Layer utilization (%)
system.tol3bus.respLayer2.occupancy         125928321                       # Layer occupancy (ticks)
system.tol3bus.respLayer2.utilization             3.8                       # Layer utilization (%)
system.tol3bus.respLayer3.occupancy         126333973                       # Layer occupancy (ticks)
system.tol3bus.respLayer3.utilization             3.8                       # Layer utilization (%)

---------- End Simulation Statistics   ----------
