
---------- Begin Simulation Statistics ----------
sim_seconds                                  0.004774                       # Number of seconds simulated
sim_ticks                                  4773984903                       # Number of ticks simulated
final_tick                                 4773984903                       # Number of ticks from beginning of simulation (restored from checkpoints and never reset)
sim_freq                                 1000000000000                       # Frequency of simulated ticks
host_inst_rate                                 132470                       # Simulator instruction rate (inst/s)
host_op_rate                                   239418                       # Simulator op (including micro ops) rate (op/s)
host_tick_rate                               16063557                       # Simulator tick rate (ticks/s)
host_mem_usage                               33927028                       # Number of bytes of host memory used
host_seconds                                   297.19                       # Real time elapsed on the host
sim_insts                                    39369251                       # Number of instructions simulated
sim_ops                                      71153481                       # Number of ops (including micro ops) simulated
system.voltage_domain.voltage                       1                       # Voltage in Volts
system.clk_domain.clock                          1000                       # Clock period in ticks
system.mem_ctrls.pwrStateResidencyTicks::UNDEFINED   4773984903                       # Cumulative time (in ticks) in various power states
system.mem_ctrls.bytes_read::cpu0.inst         181376                       # Number of bytes read from this memory
system.mem_ctrls.bytes_read::cpu0.data        2120128                       # Number of bytes read from this memory
system.mem_ctrls.bytes_read::cpu1.inst         181696                       # Number of bytes read from this memory
system.mem_ctrls.bytes_read::cpu1.data        2119680                       # Number of bytes read from this memory
system.mem_ctrls.bytes_read::cpu2.inst         182464                       # Number of bytes read from this memory
system.mem_ctrls.bytes_read::cpu2.data        2123200                       # Number of bytes read from this memory
system.mem_ctrls.bytes_read::cpu3.inst         183104                       # Number of bytes read from this memory
system.mem_ctrls.bytes_read::cpu3.data        2120576                       # Number of bytes read from this memory
system.mem_ctrls.bytes_read::total            9212224                       # Number of bytes read from this memory
system.mem_ctrls.bytes_inst_read::cpu0.inst       181376                       # Number of instructions bytes read from this memory
system.mem_ctrls.bytes_inst_read::cpu1.inst       181696                       # Number of instructions bytes read from this memory
system.mem_ctrls.bytes_inst_read::cpu2.inst       182464                       # Number of instructions bytes read from this memory
system.mem_ctrls.bytes_inst_read::cpu3.inst       183104                       # Number of instructions bytes read from this memory
system.mem_ctrls.bytes_inst_read::total        728640                       # Number of instructions bytes read from this memory
system.mem_ctrls.bytes_written::writebacks       747904                       # Number of bytes written to this memory
system.mem_ctrls.bytes_written::total          747904                       # Number of bytes written to this memory
system.mem_ctrls.num_reads::cpu0.inst            2834                       # Number of read requests responded to by this memory
system.mem_ctrls.num_reads::cpu0.data           33127                       # Number of read requests responded to by this memory
system.mem_ctrls.num_reads::cpu1.inst            2839                       # Number of read requests responded to by this memory
system.mem_ctrls.num_reads::cpu1.data           33120                       # Number of read requests responded to by this memory
system.mem_ctrls.num_reads::cpu2.inst            2851                       # Number of read requests responded to by this memory
system.mem_ctrls.num_reads::cpu2.data           33175                       # Number of read requests responded to by this memory
system.mem_ctrls.num_reads::cpu3.inst            2861                       # Number of read requests responded to by this memory
system.mem_ctrls.num_reads::cpu3.data           33134                       # Number of read requests responded to by this memory
system.mem_ctrls.num_reads::total              143941                       # Number of read requests responded to by this memory
system.mem_ctrls.num_writes::writebacks         11686                       # Number of write requests responded to by this memory
system.mem_ctrls.num_writes::total              11686                       # Number of write requests responded to by this memory
system.mem_ctrls.bw_read::cpu0.inst          37992579                       # Total read bandwidth from this memory (bytes/s)
system.mem_ctrls.bw_read::cpu0.data         444100273                       # Total read bandwidth from this memory (bytes/s)
system.mem_ctrls.bw_read::cpu1.inst          38059609                       # Total read bandwidth from this memory (bytes/s)
system.mem_ctrls.bw_read::cpu1.data         444006431                       # Total read bandwidth from this memory (bytes/s)
system.mem_ctrls.bw_read::cpu2.inst          38220481                       # Total read bandwidth from this memory (bytes/s)
system.mem_ctrls.bw_read::cpu2.data         444743761                       # Total read bandwidth from this memory (bytes/s)
system.mem_ctrls.bw_read::cpu3.inst          38354541                       # Total read bandwidth from this memory (bytes/s)
system.mem_ctrls.bw_read::cpu3.data         444194115                       # Total read bandwidth from this memory (bytes/s)
system.mem_ctrls.bw_read::total            1929671791                       # Total read bandwidth from this memory (bytes/s)
system.mem_ctrls.bw_inst_read::cpu0.inst     37992579                       # Instruction read bandwidth from this memory (bytes/s)
system.mem_ctrls.bw_inst_read::cpu1.inst     38059609                       # Instruction read bandwidth from this memory (bytes/s)
system.mem_ctrls.bw_inst_read::cpu2.inst     38220481                       # Instruction read bandwidth from this memory (bytes/s)
system.mem_ctrls.bw_inst_read::cpu3.inst     38354541                       # Instruction read bandwidth from this memory (bytes/s)
system.mem_ctrls.bw_inst_read::total        152627211                       # Instruction read bandwidth from this memory (bytes/s)
system.mem_ctrls.bw_write::writebacks       156662414                       # Write bandwidth from this memory (bytes/s)
system.mem_ctrls.bw_write::total            156662414                       # Write bandwidth from this memory (bytes/s)
system.mem_ctrls.bw_total::writebacks       156662414                       # Total bandwidth to/from this memory (bytes/s)
system.mem_ctrls.bw_total::cpu0.inst         37992579                       # Total bandwidth to/from this memory (bytes/s)
system.mem_ctrls.bw_total::cpu0.data        444100273                       # Total bandwidth to/from this memory (bytes/s)
system.mem_ctrls.bw_total::cpu1.inst         38059609                       # Total bandwidth to/from this memory (bytes/s)
system.mem_ctrls.bw_total::cpu1.data        444006431                       # Total bandwidth to/from this memory (bytes/s)
system.mem_ctrls.bw_total::cpu2.inst         38220481                       # Total bandwidth to/from this memory (bytes/s)
system.mem_ctrls.bw_total::cpu2.data        444743761                       # Total bandwidth to/from this memory (bytes/s)
system.mem_ctrls.bw_total::cpu3.inst         38354541                       # Total bandwidth to/from this memory (bytes/s)
system.mem_ctrls.bw_total::cpu3.data        444194115                       # Total bandwidth to/from this memory (bytes/s)
system.mem_ctrls.bw_total::total           2086334206                       # Total bandwidth to/from this memory (bytes/s)
system.pwrStateResidencyTicks::UNDEFINED   4773984903                       # Cumulative time (in ticks) in various power states
system.cpu0.branchPred.lookups                3005877                       # Number of BP lookups
system.cpu0.branchPred.condPredicted          3005877                       # Number of conditional branches predicted
system.cpu0.branchPred.condIncorrect           250827                       # Number of conditional branches incorrect
system.cpu0.branchPred.BTBLookups             2548930                       # Number of BTB lookups
system.cpu0.branchPred.BTBHits                      0                       # Number of BTB hits
system.cpu0.branchPred.BTBCorrect                   0                       # Number of correct BTB predictions (this stat may not work properly.
system.cpu0.branchPred.BTBHitPct             0.000000                       # BTB Hit Percentage
system.cpu0.branchPred.usedRAS                 272575                       # Number of times the RAS was used to get a target.
system.cpu0.branchPred.RASInCorrect             26608                       # Number of incorrect RAS predictions.
system.cpu0.branchPred.indirectLookups        2548930                       # Number of indirect predictor lookups.
system.cpu0.branchPred.indirectHits           1281337                       # Number of indirect target hits.
system.cpu0.branchPred.indirectMisses         1267593                       # Number of indirect misses.
system.cpu0.branchPredindirectMispredicted       164665                       # Number of mispredicted indirect branches.
system.cpu_voltage_domain.voltage                   1                       # Voltage in Volts
system.cpu_clk_domain.clock                       333                       # Clock period in ticks
system.cpu0.dtb.walker.pwrStateResidencyTicks::UNDEFINED   4773984903                       # Cumulative time (in ticks) in various power states
system.cpu0.dtb.rdAccesses                    2894526                       # TLB accesses on read requests
system.cpu0.dtb.wrAccesses                    1748575                       # TLB accesses on write requests
system.cpu0.dtb.rdMisses                        23050                       # TLB misses on read requests
system.cpu0.dtb.wrMisses                         4483                       # TLB misses on write requests
system.cpu0.apic_clk_domain.clock                5328                       # Clock period in ticks
system.cpu0.interrupts.pwrStateResidencyTicks::UNDEFINED   4773984903                       # Cumulative time (in ticks) in various power states
system.cpu0.itb.walker.pwrStateResidencyTicks::UNDEFINED   4773984903                       # Cumulative time (in ticks) in various power states
system.cpu0.itb.rdAccesses                          0                       # TLB accesses on read requests
system.cpu0.itb.wrAccesses                    2264068                       # TLB accesses on write requests
system.cpu0.itb.rdMisses                            0                       # TLB misses on read requests
system.cpu0.itb.wrMisses                         2177                       # TLB misses on write requests
system.cpu0.workload.numSyscalls                  132                       # Number of system calls
system.cpu0.pwrStateResidencyTicks::ON     4773984903                       # Cumulative time (in ticks) in various power states
system.cpu0.numCycles                        14336292                       # number of cpu cycles simulated
system.cpu0.numWorkItemsStarted                     0                       # number of work items this cpu started
system.cpu0.numWorkItemsCompleted                   0                       # number of work items this cpu completed
system.cpu0.fetch.icacheStallCycles           2557776                       # Number of cycles fetch is stalled on an Icache miss
system.cpu0.fetch.Insts                      16963970                       # Number of instructions fetch has processed
system.cpu0.fetch.Branches                    3005877                       # Number of branches that fetch encountered
system.cpu0.fetch.predictedBranches           1553912                       # Number of branches that fetch has predicted taken
system.cpu0.fetch.Cycles                     11245554                       # Number of cycles fetch has run and was not squashing or blocked
system.cpu0.fetch.SquashCycles                 509038                       # Number of cycles fetch has spent squashing
system.cpu0.fetch.MiscStallCycles                1168                       # Number of cycles fetch has spent waiting on interrupts, or bad addresses, or out of MSHRs
system.cpu0.fetch.PendingTrapStallCycles        10171                       # Number of stall cycles due to pending traps
system.cpu0.fetch.PendingQuiesceStallCycles            7                       # Number of stall cycles due to pending quiesce instructions
system.cpu0.fetch.IcacheWaitRetryStallCycles          256                       # Number of stall cycles due to full MSHR
system.cpu0.fetch.CacheLines                  2262063                       # Number of cache lines fetched
system.cpu0.fetch.IcacheSquashes                69276                       # Number of outstanding Icache misses that were squashed
system.cpu0.fetch.rateDist::samples          14069451                       # Number of instructions fetched each cycle (Total)
system.cpu0.fetch.rateDist::mean             2.184249                       # Number of instructions fetched each cycle (Total)
system.cpu0.fetch.rateDist::stdev            3.279991                       # Number of instructions fetched each cycle (Total)
system.cpu0.fetch.rateDist::underflows              0      0.00%      0.00% # Number of instructions fetched each cycle (Total)
system.cpu0.fetch.rateDist::0                 9176051     65.22%     65.22% # Number of instructions fetched each cycle (Total)
system.cpu0.fetch.rateDist::1                  233602      1.66%     66.88% # Number of instructions fetched each cycle (Total)
system.cpu0.fetch.rateDist::2                  258010      1.83%     68.71% # Number of instructions fetched each cycle (Total)
system.cpu0.fetch.rateDist::3                  331541      2.36%     71.07% # Number of instructions fetched each cycle (Total)
system.cpu0.fetch.rateDist::4                  358619      2.55%     73.62% # Number of instructions fetched each cycle (Total)
system.cpu0.fetch.rateDist::5                  442950      3.15%     76.77% # Number of instructions fetched each cycle (Total)
system.cpu0.fetch.rateDist::6                  203819      1.45%     78.22% # Number of instructions fetched each cycle (Total)
system.cpu0.fetch.rateDist::7                  404078      2.87%     81.09% # Number of instructions fetched each cycle (Total)
system.cpu0.fetch.rateDist::8                 2660781     18.91%    100.00% # Number of instructions fetched each cycle (Total)
system.cpu0.fetch.rateDist::overflows               0      0.00%    100.00% # Number of instructions fetched each cycle (Total)
system.cpu0.fetch.rateDist::min_value               0                       # Number of instructions fetched each cycle (Total)
system.cpu0.fetch.rateDist::max_value               8                       # Number of instructions fetched each cycle (Total)
system.cpu0.fetch.rateDist::total            14069451                       # Number of instructions fetched each cycle (Total)
system.cpu0.fetch.branchRate                 0.209669                       # Number of branch fetches per cycle
system.cpu0.fetch.rate                       1.183289                       # Number of inst fetches per cycle
system.cpu0.decode.IdleCycles                 2145809                       # Number of cycles decode is idle
system.cpu0.decode.BlockedCycles              7317636                       # Number of cycles decode is blocked
system.cpu0.decode.RunCycles                  3983920                       # Number of cycles decode is running
system.cpu0.decode.UnblockCycles               367567                       # Number of cycles decode is unblocking
system.cpu0.decode.SquashCycles                254519                       # Number of cycles decode is squashing
system.cpu0.decode.DecodedInsts              28982649                       # Number of instructions handled by decode
system.cpu0.rename.SquashCycles                254519                       # Number of cycles rename is squashing
system.cpu0.rename.IdleCycles                 2380464                       # Number of cycles rename is idle
system.cpu0.rename.BlockCycles                2916709                       # Number of cycles rename is blocking
system.cpu0.rename.serializeStallCycles          9377                       # count of cycles rename stalled for serializing inst
system.cpu0.rename.RunCycles                  4085414                       # Number of cycles rename is running
system.cpu0.rename.UnblockCycles              4422968                       # Number of cycles rename is unblocking
system.cpu0.rename.RenamedInsts              27782958                       # Number of instructions processed by rename
system.cpu0.rename.ROBFullEvents                17907                       # Number of times rename has blocked due to ROB full
system.cpu0.rename.IQFullEvents                136793                       # Number of times rename has blocked due to IQ full
system.cpu0.rename.LQFullEvents                 16114                       # Number of times rename has blocked due to LQ full
system.cpu0.rename.SQFullEvents               4207634                       # Number of times rename has blocked due to SQ full
system.cpu0.rename.RenamedOperands           33592303                       # Number of destination operands rename has renamed
system.cpu0.rename.RenameLookups             70828975                       # Number of register rename lookups that rename has made
system.cpu0.rename.int_rename_lookups        42919033                       # Number of integer rename lookups
system.cpu0.rename.fp_rename_lookups           981581                       # Number of floating rename lookups
system.cpu0.rename.CommittedMaps             22212704                       # Number of HB maps that are committed
system.cpu0.rename.UndoneMaps                11379514                       # Number of HB maps that are undone due to squashing
system.cpu0.rename.serializingInsts               296                       # count of serializing insts renamed
system.cpu0.rename.tempSerializingInsts           301                       # count of temporary serializing insts renamed
system.cpu0.rename.skidInsts                  1179738                       # count of insts added to the skid buffer
system.cpu0.memDep0.insertedLoads             3544152                       # Number of loads inserted to the mem dependence unit.
system.cpu0.memDep0.insertedStores            2132127                       # Number of stores inserted to the mem dependence unit.
system.cpu0.memDep0.conflictingLoads           389660                       # Number of conflicting loads.
system.cpu0.memDep0.conflictingStores          215884                       # Number of conflicting stores.
system.cpu0.iq.iqInstsAdded                  25423607                       # Number of instructions added to the IQ (excludes non-spec)
system.cpu0.iq.iqNonSpecInstsAdded               2133                       # Number of non-speculative instructions added to the IQ
system.cpu0.iq.iqInstsIssued                 22566100                       # Number of instructions issued
system.cpu0.iq.iqSquashedInstsIssued            72842                       # Number of squashed instructions issued
system.cpu0.iq.iqSquashedInstsExamined        7362036                       # Number of squashed instructions iterated over during squash; mainly for profiling
system.cpu0.iq.iqSquashedOperandsExamined     11888161                       # Number of squashed operands that are examined and possibly removed from graph
system.cpu0.iq.iqSquashedNonSpecRemoved          1929                       # Number of squashed non-spec instructions that were removed
system.cpu0.iq.issued_per_cycle::samples     14069451                       # Number of insts issued each cycle
system.cpu0.iq.issued_per_cycle::mean        1.603908                       # Number of insts issued each cycle
system.cpu0.iq.issued_per_cycle::stdev       2.279130                       # Number of insts issued each cycle
system.cpu0.iq.issued_per_cycle::underflows            0      0.00%      0.00% # Number of insts issued each cycle
system.cpu0.iq.issued_per_cycle::0            8050184     57.22%     57.22% # Number of insts issued each cycle
system.cpu0.iq.issued_per_cycle::1            1037423      7.37%     64.59% # Number of insts issued each cycle
system.cpu0.iq.issued_per_cycle::2             986070      7.01%     71.60% # Number of insts issued each cycle
system.cpu0.iq.issued_per_cycle::3             829433      5.90%     77.49% # Number of insts issued each cycle
system.cpu0.iq.issued_per_cycle::4             972096      6.91%     84.40% # Number of insts issued each cycle
system.cpu0.iq.issued_per_cycle::5             826190      5.87%     90.28% # Number of insts issued each cycle
system.cpu0.iq.issued_per_cycle::6             749713      5.33%     95.61% # Number of insts issued each cycle
system.cpu0.iq.issued_per_cycle::7             396110      2.82%     98.42% # Number of insts issued each cycle
system.cpu0.iq.issued_per_cycle::8             222232      1.58%    100.00% # Number of insts issued each cycle
system.cpu0.iq.issued_per_cycle::overflows            0      0.00%    100.00% # Number of insts issued each cycle
system.cpu0.iq.issued_per_cycle::min_value            0                       # Number of insts issued each cycle
system.cpu0.iq.issued_per_cycle::max_value            8                       # Number of insts issued each cycle
system.cpu0.iq.issued_per_cycle::total       14069451                       # Number of insts issued each cycle
system.cpu0.iq.fu_full::No_OpClass                  0      0.00%      0.00% # attempts to use FU when none available
system.cpu0.iq.fu_full::IntAlu                 295722     83.26%     83.26% # attempts to use FU when none available
system.cpu0.iq.fu_full::IntMult                     0      0.00%     83.26% # attempts to use FU when none available
system.cpu0.iq.fu_full::IntDiv                      0      0.00%     83.26% # attempts to use FU when none available
system.cpu0.iq.fu_full::FloatAdd                 1518      0.43%     83.68% # attempts to use FU when none available
system.cpu0.iq.fu_full::FloatCmp                    0      0.00%     83.68% # attempts to use FU when none available
system.cpu0.iq.fu_full::FloatCvt                    0      0.00%     83.68% # attempts to use FU when none available
system.cpu0.iq.fu_full::FloatMult                   0      0.00%     83.68% # attempts to use FU when none available
system.cpu0.iq.fu_full::FloatMultAcc                0      0.00%     83.68% # attempts to use FU when none available
system.cpu0.iq.fu_full::FloatDiv                    0      0.00%     83.68% # attempts to use FU when none available
system.cpu0.iq.fu_full::FloatMisc                   0      0.00%     83.68% # attempts to use FU when none available
system.cpu0.iq.fu_full::FloatSqrt                   0      0.00%     83.68% # attempts to use FU when none available
system.cpu0.iq.fu_full::SimdAdd                     0      0.00%     83.68% # attempts to use FU when none available
system.cpu0.iq.fu_full::SimdAddAcc                  0      0.00%     83.68% # attempts to use FU when none available
system.cpu0.iq.fu_full::SimdAlu                     0      0.00%     83.68% # attempts to use FU when none available
system.cpu0.iq.fu_full::SimdCmp                     0      0.00%     83.68% # attempts to use FU when none available
system.cpu0.iq.fu_full::SimdCvt                     0      0.00%     83.68% # attempts to use FU when none available
system.cpu0.iq.fu_full::SimdMisc                    0      0.00%     83.68% # attempts to use FU when none available
system.cpu0.iq.fu_full::SimdMult                    0      0.00%     83.68% # attempts to use FU when none available
system.cpu0.iq.fu_full::SimdMultAcc                 0      0.00%     83.68% # attempts to use FU when none available
system.cpu0.iq.fu_full::SimdShift                   0      0.00%     83.68% # attempts to use FU when none available
system.cpu0.iq.fu_full::SimdShiftAcc                0      0.00%     83.68% # attempts to use FU when none available
system.cpu0.iq.fu_full::SimdSqrt                    0      0.00%     83.68% # attempts to use FU when none available
system.cpu0.iq.fu_full::SimdFloatAdd                0      0.00%     83.68% # attempts to use FU when none available
system.cpu0.iq.fu_full::SimdFloatAlu                0      0.00%     83.68% # attempts to use FU when none available
system.cpu0.iq.fu_full::SimdFloatCmp                0      0.00%     83.68% # attempts to use FU when none available
system.cpu0.iq.fu_full::SimdFloatCvt                0      0.00%     83.68% # attempts to use FU when none available
system.cpu0.iq.fu_full::SimdFloatDiv                0      0.00%     83.68% # attempts to use FU when none available
system.cpu0.iq.fu_full::SimdFloatMisc               0      0.00%     83.68% # attempts to use FU when none available
system.cpu0.iq.fu_full::SimdFloatMult               0      0.00%     83.68% # attempts to use FU when none available
system.cpu0.iq.fu_full::SimdFloatMultAcc            0      0.00%     83.68% # attempts to use FU when none available
system.cpu0.iq.fu_full::SimdFloatSqrt               0      0.00%     83.68% # attempts to use FU when none available
system.cpu0.iq.fu_full::MemRead                 37596     10.58%     94.27% # attempts to use FU when none available
system.cpu0.iq.fu_full::MemWrite                11033      3.11%     97.37% # attempts to use FU when none available
system.cpu0.iq.fu_full::FloatMemRead             3894      1.10%     98.47% # attempts to use FU when none available
system.cpu0.iq.fu_full::FloatMemWrite            5437      1.53%    100.00% # attempts to use FU when none available
system.cpu0.iq.fu_full::IprAccess                   0      0.00%    100.00% # attempts to use FU when none available
system.cpu0.iq.fu_full::InstPrefetch                0      0.00%    100.00% # attempts to use FU when none available
system.cpu0.iq.FU_type_0::No_OpClass           255651      1.13%      1.13% # Type of FU issued
system.cpu0.iq.FU_type_0::IntAlu             17076330     75.67%     76.81% # Type of FU issued
system.cpu0.iq.FU_type_0::IntMult               44955      0.20%     77.00% # Type of FU issued
system.cpu0.iq.FU_type_0::IntDiv                92761      0.41%     77.42% # Type of FU issued
system.cpu0.iq.FU_type_0::FloatAdd             205201      0.91%     78.33% # Type of FU issued
system.cpu0.iq.FU_type_0::FloatCmp                  0      0.00%     78.33% # Type of FU issued
system.cpu0.iq.FU_type_0::FloatCvt                  0      0.00%     78.33% # Type of FU issued
system.cpu0.iq.FU_type_0::FloatMult                 0      0.00%     78.33% # Type of FU issued
system.cpu0.iq.FU_type_0::FloatMultAcc              0      0.00%     78.33% # Type of FU issued
system.cpu0.iq.FU_type_0::FloatDiv                  0      0.00%     78.33% # Type of FU issued
system.cpu0.iq.FU_type_0::FloatMisc                 0      0.00%     78.33% # Type of FU issued
system.cpu0.iq.FU_type_0::FloatSqrt                 0      0.00%     78.33% # Type of FU issued
system.cpu0.iq.FU_type_0::SimdAdd                   0      0.00%     78.33% # Type of FU issued
system.cpu0.iq.FU_type_0::SimdAddAcc                0      0.00%     78.33% # Type of FU issued
system.cpu0.iq.FU_type_0::SimdAlu                   0      0.00%     78.33% # Type of FU issued
system.cpu0.iq.FU_type_0::SimdCmp                   0      0.00%     78.33% # Type of FU issued
system.cpu0.iq.FU_type_0::SimdCvt                   0      0.00%     78.33% # Type of FU issued
system.cpu0.iq.FU_type_0::SimdMisc                  0      0.00%     78.33% # Type of FU issued
system.cpu0.iq.FU_type_0::SimdMult                  0      0.00%     78.33% # Type of FU issued
system.cpu0.iq.FU_type_0::SimdMultAcc               0      0.00%     78.33% # Type of FU issued
system.cpu0.iq.FU_type_0::SimdShift                 0      0.00%     78.33% # Type of FU issued
system.cpu0.iq.FU_type_0::SimdShiftAcc              0      0.00%     78.33% # Type of FU issued
system.cpu0.iq.FU_type_0::SimdSqrt                  0      0.00%     78.33% # Type of FU issued
system.cpu0.iq.FU_type_0::SimdFloatAdd              0      0.00%     78.33% # Type of FU issued
system.cpu0.iq.FU_type_0::SimdFloatAlu              0      0.00%     78.33% # Type of FU issued
system.cpu0.iq.FU_type_0::SimdFloatCmp              0      0.00%     78.33% # Type of FU issued
system.cpu0.iq.FU_type_0::SimdFloatCvt              0      0.00%     78.33% # Type of FU issued
system.cpu0.iq.FU_type_0::SimdFloatDiv              0      0.00%     78.33% # Type of FU issued
system.cpu0.iq.FU_type_0::SimdFloatMisc             0      0.00%     78.33% # Type of FU issued
system.cpu0.iq.FU_type_0::SimdFloatMult             0      0.00%     78.33% # Type of FU issued
system.cpu0.iq.FU_type_0::SimdFloatMultAcc            0      0.00%     78.33% # Type of FU issued
system.cpu0.iq.FU_type_0::SimdFloatSqrt             0      0.00%     78.33% # Type of FU issued
system.cpu0.iq.FU_type_0::MemRead             2992381     13.26%     91.59% # Type of FU issued
system.cpu0.iq.FU_type_0::MemWrite            1577463      6.99%     98.58% # Type of FU issued
system.cpu0.iq.FU_type_0::FloatMemRead          98727      0.44%     99.01% # Type of FU issued
system.cpu0.iq.FU_type_0::FloatMemWrite        222631      0.99%    100.00% # Type of FU issued
system.cpu0.iq.FU_type_0::IprAccess                 0      0.00%    100.00% # Type of FU issued
system.cpu0.iq.FU_type_0::InstPrefetch              0      0.00%    100.00% # Type of FU issued
system.cpu0.iq.FU_type_0::total              22566100                       # Type of FU issued
system.cpu0.iq.rate                          1.574054                       # Inst issue rate
system.cpu0.iq.fu_busy_cnt                     355200                       # FU busy when requested
system.cpu0.iq.fu_busy_rate                  0.015740                       # FU busy rate (busy events/executed inst)
system.cpu0.iq.int_inst_queue_reads          58524748                       # Number of integer instruction queue reads
system.cpu0.iq.int_inst_queue_writes         31889425                       # Number of integer instruction queue writes
system.cpu0.iq.int_inst_queue_wakeup_accesses     21025794                       # Number of integer instruction queue wakeup accesses
system.cpu0.iq.fp_inst_queue_reads            1104940                       # Number of floating instruction queue reads
system.cpu0.iq.fp_inst_queue_writes            901902                       # Number of floating instruction queue writes
system.cpu0.iq.fp_inst_queue_wakeup_accesses       510399                       # Number of floating instruction queue wakeup accesses
system.cpu0.iq.vec_inst_queue_reads                 0                       # Number of vector instruction queue reads
system.cpu0.iq.vec_inst_queue_writes                0                       # Number of vector instruction queue writes
system.cpu0.iq.vec_inst_queue_wakeup_accesses            0                       # Number of vector instruction queue wakeup accesses
system.cpu0.iq.int_alu_accesses              22111160                       # Number of integer alu accesses
system.cpu0.iq.fp_alu_accesses                 554489                       # Number of floating point alu accesses
system.cpu0.iq.vec_alu_accesses                     0                       # Number of vector alu accesses
system.cpu0.iew.lsq.thread0.forwLoads          280268                       # Number of loads that had data forwarded from stores
system.cpu0.iew.lsq.thread0.invAddrLoads            0                       # Number of loads ignored due to an invalid address
system.cpu0.iew.lsq.thread0.squashedLoads      1429908                       # Number of loads squashed
system.cpu0.iew.lsq.thread0.ignoredResponses         4552                       # Number of memory responses ignored because the instruction is squashed
system.cpu0.iew.lsq.thread0.memOrderViolation         3610                       # Number of memory ordering violations
system.cpu0.iew.lsq.thread0.squashedStores       575769                       # Number of stores squashed
system.cpu0.iew.lsq.thread0.invAddrSwpfs            0                       # Number of software prefetches ignored due to an invalid address
system.cpu0.iew.lsq.thread0.blockedLoads            0                       # Number of blocked loads due to partial load-store forwarding
system.cpu0.iew.lsq.thread0.rescheduledLoads         1070                       # Number of loads that were rescheduled
system.cpu0.iew.lsq.thread0.cacheBlocked         1762                       # Number of times an access to memory failed due to the cache being blocked
system.cpu0.iew.iewIdleCycles                       0                       # Number of cycles IEW is idle
system.cpu0.iew.iewSquashCycles                254519                       # Number of cycles IEW is squashing
system.cpu0.iew.iewBlockCycles                 866067                       # Number of cycles IEW is blocking
system.cpu0.iew.iewUnblockCycles              2007453                       # Number of cycles IEW is unblocking
system.cpu0.iew.iewDispatchedInsts           25425740                       # Number of instructions dispatched to IQ
system.cpu0.iew.iewDispSquashedInsts            11792                       # Number of squashed instructions skipped by dispatch
system.cpu0.iew.iewDispLoadInsts              3544152                       # Number of dispatched load instructions
system.cpu0.iew.iewDispStoreInsts             2132127                       # Number of dispatched store instructions
system.cpu0.iew.iewDispNonSpecInsts               909                       # Number of dispatched non-speculative instructions
system.cpu0.iew.iewIQFullEvents                   566                       # Number of times the IQ has become full, causing a stall
system.cpu0.iew.iewLSQFullEvents              2006678                       # Number of times the LSQ has become full, causing a stall
system.cpu0.iew.memOrderViolationEvents          3610                       # Number of memory order violations
system.cpu0.iew.predictedTakenIncorrect         85818                       # Number of branches that were predicted taken incorrectly
system.cpu0.iew.predictedNotTakenIncorrect       237164                       # Number of branches that were predicted not taken incorrectly
system.cpu0.iew.branchMispredicts              322982                       # Number of branch mispredicts detected at execute
system.cpu0.iew.iewExecutedInsts             21942664                       # Number of executed instructions
system.cpu0.iew.iewExecLoadInsts              2891002                       # Number of load instructions executed
system.cpu0.iew.iewExecSquashedInsts           623431                       # Number of squashed instructions skipped in execute
system.cpu0.iew.exec_swp                            0                       # number of swp insts executed
system.cpu0.iew.exec_nop                            0                       # number of nop insts executed
system.cpu0.iew.exec_refs                     4637304                       # number of memory reference insts executed
system.cpu0.iew.exec_branches                 2112799                       # Number of branches executed
system.cpu0.iew.exec_stores                   1746302                       # Number of stores executed
system.cpu0.iew.exec_rate                    1.530568                       # Inst execution rate
system.cpu0.iew.wb_sent                      21702371                       # cumulative count of insts sent to commit
system.cpu0.iew.wb_count                     21536193                       # cumulative count of insts written-back
system.cpu0.iew.wb_producers                 15684844                       # num instructions producing a value
system.cpu0.iew.wb_consumers                 25821271                       # num instructions consuming a value
system.cpu0.iew.wb_rate                      1.502215                       # insts written-back per cycle
system.cpu0.iew.wb_fanout                    0.607439                       # average fanout of values written-back
system.cpu0.commit.commitSquashedInsts        7362589                       # The number of squashed insts skipped by commit
system.cpu0.commit.commitNonSpecStalls            204                       # The number of times commit has been forced to stall to communicate backwards
system.cpu0.commit.branchMispredicts           251716                       # The number of times a branch was mispredicted
system.cpu0.commit.committed_per_cycle::samples     12979540                       # Number of insts commited each cycle
system.cpu0.commit.committed_per_cycle::mean     1.391702                       # Number of insts commited each cycle
system.cpu0.commit.committed_per_cycle::stdev     2.462224                       # Number of insts commited each cycle
system.cpu0.commit.committed_per_cycle::underflows            0      0.00%      0.00% # Number of insts commited each cycle
system.cpu0.commit.committed_per_cycle::0      8278689     63.78%     63.78% # Number of insts commited each cycle
system.cpu0.commit.committed_per_cycle::1      1515112     11.67%     75.46% # Number of insts commited each cycle
system.cpu0.commit.committed_per_cycle::2       443972      3.42%     78.88% # Number of insts commited each cycle
system.cpu0.commit.committed_per_cycle::3       575460      4.43%     83.31% # Number of insts commited each cycle
system.cpu0.commit.committed_per_cycle::4       401281      3.09%     86.40% # Number of insts commited each cycle
system.cpu0.commit.committed_per_cycle::5       407620      3.14%     89.54% # Number of insts commited each cycle
system.cpu0.commit.committed_per_cycle::6       198498      1.53%     91.07% # Number of insts commited each cycle
system.cpu0.commit.committed_per_cycle::7       171259      1.32%     92.39% # Number of insts commited each cycle
system.cpu0.commit.committed_per_cycle::8       987649      7.61%    100.00% # Number of insts commited each cycle
system.cpu0.commit.committed_per_cycle::overflows            0      0.00%    100.00% # Number of insts commited each cycle
system.cpu0.commit.committed_per_cycle::min_value            0                       # Number of insts commited each cycle
system.cpu0.commit.committed_per_cycle::max_value            8                       # Number of insts commited each cycle
system.cpu0.commit.committed_per_cycle::total     12979540                       # Number of insts commited each cycle
system.cpu0.commit.committedInsts            10000000                       # Number of instructions committed
system.cpu0.commit.committedOps              18063653                       # Number of ops (including micro ops) committed
system.cpu0.commit.swp_count                        0                       # Number of s/w prefetches committed
system.cpu0.commit.refs                       3670594                       # Number of memory references committed
system.cpu0.commit.loads                      2114240                       # Number of loads committed
system.cpu0.commit.membars                         48                       # Number of memory barriers committed
system.cpu0.commit.branches                   1855547                       # Number of branches committed
system.cpu0.commit.vec_insts                        0                       # Number of committed Vector instructions.
system.cpu0.commit.fp_insts                    375972                       # Number of committed floating point instructions.
system.cpu0.commit.int_insts                 17805840                       # Number of committed integer instructions.
system.cpu0.commit.function_calls              115153                       # Number of function calls committed.
system.cpu0.commit.op_class_0::No_OpClass       150899      0.84%      0.84% # Class of committed instruction
system.cpu0.commit.op_class_0::IntAlu        13996779     77.49%     78.32% # Class of committed instruction
system.cpu0.commit.op_class_0::IntMult          41598      0.23%     78.55% # Class of committed instruction
system.cpu0.commit.op_class_0::IntDiv           92064      0.51%     79.06% # Class of committed instruction
system.cpu0.commit.op_class_0::FloatAdd        111719      0.62%     79.68% # Class of committed instruction
system.cpu0.commit.op_class_0::FloatCmp             0      0.00%     79.68% # Class of committed instruction
system.cpu0.commit.op_class_0::FloatCvt             0      0.00%     79.68% # Class of committed instruction
system.cpu0.commit.op_class_0::FloatMult            0      0.00%     79.68% # Class of committed instruction
system.cpu0.commit.op_class_0::FloatMultAcc            0      0.00%     79.68% # Class of committed instruction
system.cpu0.commit.op_class_0::FloatDiv             0      0.00%     79.68% # Class of committed instruction
system.cpu0.commit.op_class_0::FloatMisc            0      0.00%     79.68% # Class of committed instruction
system.cpu0.commit.op_class_0::FloatSqrt            0      0.00%     79.68% # Class of committed instruction
system.cpu0.commit.op_class_0::SimdAdd              0      0.00%     79.68% # Class of committed instruction
system.cpu0.commit.op_class_0::SimdAddAcc            0      0.00%     79.68% # Class of committed instruction
system.cpu0.commit.op_class_0::SimdAlu              0      0.00%     79.68% # Class of committed instruction
system.cpu0.commit.op_class_0::SimdCmp              0      0.00%     79.68% # Class of committed instruction
system.cpu0.commit.op_class_0::SimdCvt              0      0.00%     79.68% # Class of committed instruction
system.cpu0.commit.op_class_0::SimdMisc             0      0.00%     79.68% # Class of committed instruction
system.cpu0.commit.op_class_0::SimdMult             0      0.00%     79.68% # Class of committed instruction
system.cpu0.commit.op_class_0::SimdMultAcc            0      0.00%     79.68% # Class of committed instruction
system.cpu0.commit.op_class_0::SimdShift            0      0.00%     79.68% # Class of committed instruction
system.cpu0.commit.op_class_0::SimdShiftAcc            0      0.00%     79.68% # Class of committed instruction
system.cpu0.commit.op_class_0::SimdSqrt             0      0.00%     79.68% # Class of committed instruction
system.cpu0.commit.op_class_0::SimdFloatAdd            0      0.00%     79.68% # Class of committed instruction
system.cpu0.commit.op_class_0::SimdFloatAlu            0      0.00%     79.68% # Class of committed instruction
system.cpu0.commit.op_class_0::SimdFloatCmp            0      0.00%     79.68% # Class of committed instruction
system.cpu0.commit.op_class_0::SimdFloatCvt            0      0.00%     79.68% # Class of committed instruction
system.cpu0.commit.op_class_0::SimdFloatDiv            0      0.00%     79.68% # Class of committed instruction
system.cpu0.commit.op_class_0::SimdFloatMisc            0      0.00%     79.68% # Class of committed instruction
system.cpu0.commit.op_class_0::SimdFloatMult            0      0.00%     79.68% # Class of committed instruction
system.cpu0.commit.op_class_0::SimdFloatMultAcc            0      0.00%     79.68% # Class of committed instruction
system.cpu0.commit.op_class_0::SimdFloatSqrt            0      0.00%     79.68% # Class of committed instruction
system.cpu0.commit.op_class_0::MemRead        2074925     11.49%     91.17% # Class of committed instruction
system.cpu0.commit.op_class_0::MemWrite       1339591      7.42%     98.58% # Class of committed instruction
system.cpu0.commit.op_class_0::FloatMemRead        39315      0.22%     98.80% # Class of committed instruction
system.cpu0.commit.op_class_0::FloatMemWrite       216763      1.20%    100.00% # Class of committed instruction
system.cpu0.commit.op_class_0::IprAccess            0      0.00%    100.00% # Class of committed instruction
system.cpu0.commit.op_class_0::InstPrefetch            0      0.00%    100.00% # Class of committed instruction
system.cpu0.commit.op_class_0::total         18063653                       # Class of committed instruction
system.cpu0.commit.bw_lim_events               987649                       # number cycles where commit BW limit reached
system.cpu0.rob.rob_reads                    37418133                       # The number of ROB reads
system.cpu0.rob.rob_writes                   51959329                       # The number of ROB writes
system.cpu0.timesIdled                           1755                       # Number of times that the entire CPU went into an idle state and unscheduled itself
system.cpu0.idleCycles                         266841                       # Total number of cycles that the CPU has spent unscheduled due to idling
system.cpu0.committedInsts                   10000000                       # Number of Instructions Simulated
system.cpu0.committedOps                     18063653                       # Number of Ops (including micro ops) Simulated
system.cpu0.cpi                              1.433629                       # CPI: Cycles Per Instruction
system.cpu0.cpi_total                        1.433629                       # CPI: Total CPI of All Threads
system.cpu0.ipc                              0.697530                       # IPC: Instructions Per Cycle
system.cpu0.ipc_total                        0.697530                       # IPC: Total IPC of All Threads
system.cpu0.int_regfile_reads                32508618                       # number of integer regfile reads
system.cpu0.int_regfile_writes               17660073                       # number of integer regfile writes
system.cpu0.fp_regfile_reads                   681152                       # number of floating regfile reads
system.cpu0.fp_regfile_writes                  271116                       # number of floating regfile writes
system.cpu0.cc_regfile_reads                 11833196                       # number of cc regfile reads
system.cpu0.cc_regfile_writes                 8293196                       # number of cc regfile writes
system.cpu0.misc_regfile_reads                8856768                       # number of misc regfile reads
system.cpu0.dcache.tags.pwrStateResidencyTicks::UNDEFINED   4773984903                       # Cumulative time (in ticks) in various power states
system.cpu0.dcache.tags.replacements            45686                       # number of replacements
system.cpu0.dcache.tags.tagsinuse          509.434318                       # Cycle average of tags in use
system.cpu0.dcache.tags.total_refs            4088226                       # Total number of references to valid blocks.
system.cpu0.dcache.tags.sampled_refs            46198                       # Sample count of references to valid blocks.
system.cpu0.dcache.tags.avg_refs            88.493571                       # Average number of references to valid blocks.
system.cpu0.dcache.tags.warmup_cycle           150183                       # Cycle when the warmup percentage was hit.
system.cpu0.dcache.tags.occ_blocks::cpu0.data   509.434318                       # Average occupied blocks per requestor
system.cpu0.dcache.tags.occ_percent::cpu0.data     0.994989                       # Average percentage of cache occupancy
system.cpu0.dcache.tags.occ_percent::total     0.994989                       # Average percentage of cache occupancy
system.cpu0.dcache.tags.occ_task_id_blocks::1024          512                       # Occupied blocks per task id
system.cpu0.dcache.tags.age_task_id_blocks_1024::0            3                       # Occupied blocks per task id
system.cpu0.dcache.tags.age_task_id_blocks_1024::1          374                       # Occupied blocks per task id
system.cpu0.dcache.tags.age_task_id_blocks_1024::2          104                       # Occupied blocks per task id
system.cpu0.dcache.tags.age_task_id_blocks_1024::3           31                       # Occupied blocks per task id
system.cpu0.dcache.tags.occ_task_id_percent::1024            1                       # Percentage of cache occupancy per task id
system.cpu0.dcache.tags.tag_accesses         33224222                       # Number of tag accesses
system.cpu0.dcache.tags.data_accesses        33224222                       # Number of data accesses
system.cpu0.dcache.pwrStateResidencyTicks::UNDEFINED   4773984903                       # Cumulative time (in ticks) in various power states
system.cpu0.dcache.ReadReq_hits::cpu0.data      2568962                       # number of ReadReq hits
system.cpu0.dcache.ReadReq_hits::total        2568962                       # number of ReadReq hits
system.cpu0.dcache.WriteReq_hits::cpu0.data      1518969                       # number of WriteReq hits
system.cpu0.dcache.WriteReq_hits::total       1518969                       # number of WriteReq hits
system.cpu0.dcache.demand_hits::cpu0.data      4087931                       # number of demand (read+write) hits
system.cpu0.dcache.demand_hits::total         4087931                       # number of demand (read+write) hits
system.cpu0.dcache.overall_hits::cpu0.data      4087931                       # number of overall hits
system.cpu0.dcache.overall_hits::total        4087931                       # number of overall hits
system.cpu0.dcache.ReadReq_misses::cpu0.data        20227                       # number of ReadReq misses
system.cpu0.dcache.ReadReq_misses::total        20227                       # number of ReadReq misses
system.cpu0.dcache.WriteReq_misses::cpu0.data        39095                       # number of WriteReq misses
system.cpu0.dcache.WriteReq_misses::total        39095                       # number of WriteReq misses
system.cpu0.dcache.demand_misses::cpu0.data        59322                       # number of demand (read+write) misses
system.cpu0.dcache.demand_misses::total         59322                       # number of demand (read+write) misses
system.cpu0.dcache.overall_misses::cpu0.data        59322                       # number of overall misses
system.cpu0.dcache.overall_misses::total        59322                       # number of overall misses
system.cpu0.dcache.ReadReq_miss_latency::cpu0.data    701890074                       # number of ReadReq miss cycles
system.cpu0.dcache.ReadReq_miss_latency::total    701890074                       # number of ReadReq miss cycles
system.cpu0.dcache.WriteReq_miss_latency::cpu0.data   2096699200                       # number of WriteReq miss cycles
system.cpu0.dcache.WriteReq_miss_latency::total   2096699200                       # number of WriteReq miss cycles
system.cpu0.dcache.demand_miss_latency::cpu0.data   2798589274                       # number of demand (read+write) miss cycles
system.cpu0.dcache.demand_miss_latency::total   2798589274                       # number of demand (read+write) miss cycles
system.cpu0.dcache.overall_miss_latency::cpu0.data   2798589274                       # number of overall miss cycles
system.cpu0.dcache.overall_miss_latency::total   2798589274                       # number of overall miss cycles
system.cpu0.dcache.ReadReq_accesses::cpu0.data      2589189                       # number of ReadReq accesses(hits+misses)
system.cpu0.dcache.ReadReq_accesses::total      2589189                       # number of ReadReq accesses(hits+misses)
system.cpu0.dcache.WriteReq_accesses::cpu0.data      1558064                       # number of WriteReq accesses(hits+misses)
system.cpu0.dcache.WriteReq_accesses::total      1558064                       # number of WriteReq accesses(hits+misses)
system.cpu0.dcache.demand_accesses::cpu0.data      4147253                       # number of demand (read+write) accesses
system.cpu0.dcache.demand_accesses::total      4147253                       # number of demand (read+write) accesses
system.cpu0.dcache.overall_accesses::cpu0.data      4147253                       # number of overall (read+write) accesses
system.cpu0.dcache.overall_accesses::total      4147253                       # number of overall (read+write) accesses
system.cpu0.dcache.ReadReq_miss_rate::cpu0.data     0.007812                       # miss rate for ReadReq accesses
system.cpu0.dcache.ReadReq_miss_rate::total     0.007812                       # miss rate for ReadReq accesses
system.cpu0.dcache.WriteReq_miss_rate::cpu0.data     0.025092                       # miss rate for WriteReq accesses
system.cpu0.dcache.WriteReq_miss_rate::total     0.025092                       # miss rate for WriteReq accesses
system.cpu0.dcache.demand_miss_rate::cpu0.data     0.014304                       # miss rate for demand accesses
system.cpu0.dcache.demand_miss_rate::total     0.014304                       # miss rate for demand accesses
system.cpu0.dcache.overall_miss_rate::cpu0.data     0.014304                       # miss rate for overall accesses
system.cpu0.dcache.overall_miss_rate::total     0.014304                       # miss rate for overall accesses
system.cpu0.dcache.ReadReq_avg_miss_latency::cpu0.data 34700.651308                       # average ReadReq miss latency
system.cpu0.dcache.ReadReq_avg_miss_latency::total 34700.651308                       # average ReadReq miss latency
system.cpu0.dcache.WriteReq_avg_miss_latency::cpu0.data 53630.878629                       # average WriteReq miss latency
system.cpu0.dcache.WriteReq_avg_miss_latency::total 53630.878629                       # average WriteReq miss latency
system.cpu0.dcache.demand_avg_miss_latency::cpu0.data 47176.246148                       # average overall miss latency
system.cpu0.dcache.demand_avg_miss_latency::total 47176.246148                       # average overall miss latency
system.cpu0.dcache.overall_avg_miss_latency::cpu0.data 47176.246148                       # average overall miss latency
system.cpu0.dcache.overall_avg_miss_latency::total 47176.246148                       # average overall miss latency
system.cpu0.dcache.blocked_cycles::no_mshrs        15440                       # number of cycles access was blocked
system.cpu0.dcache.blocked_cycles::no_targets            0                       # number of cycles access was blocked
system.cpu0.dcache.blocked::no_mshrs              334                       # number of cycles access was blocked
system.cpu0.dcache.blocked::no_targets              0                       # number of cycles access was blocked
system.cpu0.dcache.avg_blocked_cycles::no_mshrs    46.227545                       # average number of cycles each access was blocked
system.cpu0.dcache.avg_blocked_cycles::no_targets          nan                       # average number of cycles each access was blocked
system.cpu0.dcache.writebacks::writebacks        43004                       # number of writebacks
system.cpu0.dcache.writebacks::total            43004                       # number of writebacks
system.cpu0.dcache.ReadReq_mshr_hits::cpu0.data        12805                       # number of ReadReq MSHR hits
system.cpu0.dcache.ReadReq_mshr_hits::total        12805                       # number of ReadReq MSHR hits
system.cpu0.dcache.WriteReq_mshr_hits::cpu0.data           38                       # number of WriteReq MSHR hits
system.cpu0.dcache.WriteReq_mshr_hits::total           38                       # number of WriteReq MSHR hits
system.cpu0.dcache.demand_mshr_hits::cpu0.data        12843                       # number of demand (read+write) MSHR hits
system.cpu0.dcache.demand_mshr_hits::total        12843                       # number of demand (read+write) MSHR hits
system.cpu0.dcache.overall_mshr_hits::cpu0.data        12843                       # number of overall MSHR hits
system.cpu0.dcache.overall_mshr_hits::total        12843                       # number of overall MSHR hits
system.cpu0.dcache.ReadReq_mshr_misses::cpu0.data         7422                       # number of ReadReq MSHR misses
system.cpu0.dcache.ReadReq_mshr_misses::total         7422                       # number of ReadReq MSHR misses
system.cpu0.dcache.WriteReq_mshr_misses::cpu0.data        39057                       # number of WriteReq MSHR misses
system.cpu0.dcache.WriteReq_mshr_misses::total        39057                       # number of WriteReq MSHR misses
system.cpu0.dcache.demand_mshr_misses::cpu0.data        46479                       # number of demand (read+write) MSHR misses
system.cpu0.dcache.demand_mshr_misses::total        46479                       # number of demand (read+write) MSHR misses
system.cpu0.dcache.overall_mshr_misses::cpu0.data        46479                       # number of overall MSHR misses
system.cpu0.dcache.overall_mshr_misses::total        46479                       # number of overall MSHR misses
system.cpu0.dcache.ReadReq_mshr_miss_latency::cpu0.data    119838708                       # number of ReadReq MSHR miss cycles
system.cpu0.dcache.ReadReq_mshr_miss_latency::total    119838708                       # number of ReadReq MSHR miss cycles
system.cpu0.dcache.WriteReq_mshr_miss_latency::cpu0.data   2069934325                       # number of WriteReq MSHR miss cycles
system.cpu0.dcache.WriteReq_mshr_miss_latency::total   2069934325                       # number of WriteReq MSHR miss cycles
system.cpu0.dcache.demand_mshr_miss_latency::cpu0.data   2189773033                       # number of demand (read+write) MSHR miss cycles
system.cpu0.dcache.demand_mshr_miss_latency::total   2189773033                       # number of demand (read+write) MSHR miss cycles
system.cpu0.dcache.overall_mshr_miss_latency::cpu0.data   2189773033                       # number of overall MSHR miss cycles
system.cpu0.dcache.overall_mshr_miss_latency::total   2189773033                       # number of overall MSHR miss cycles
system.cpu0.dcache.ReadReq_mshr_miss_rate::cpu0.data     0.002867                       # mshr miss rate for ReadReq accesses
system.cpu0.dcache.ReadReq_mshr_miss_rate::total     0.002867                       # mshr miss rate for ReadReq accesses
system.cpu0.dcache.WriteReq_mshr_miss_rate::cpu0.data     0.025068                       # mshr miss rate for WriteReq accesses
system.cpu0.dcache.WriteReq_mshr_miss_rate::total     0.025068                       # mshr miss rate for WriteReq accesses
system.cpu0.dcache.demand_mshr_miss_rate::cpu0.data     0.011207                       # mshr miss rate for demand accesses
system.cpu0.dcache.demand_mshr_miss_rate::total     0.011207                       # mshr miss rate for demand accesses
system.cpu0.dcache.overall_mshr_miss_rate::cpu0.data     0.011207                       # mshr miss rate for overall accesses
system.cpu0.dcache.overall_mshr_miss_rate::total     0.011207                       # mshr miss rate for overall accesses
system.cpu0.dcache.ReadReq_avg_mshr_miss_latency::cpu0.data 16146.417138                       # average ReadReq mshr miss latency
system.cpu0.dcache.ReadReq_avg_mshr_miss_latency::total 16146.417138                       # average ReadReq mshr miss latency
system.cpu0.dcache.WriteReq_avg_mshr_miss_latency::cpu0.data 52997.780808                       # average WriteReq mshr miss latency
system.cpu0.dcache.WriteReq_avg_mshr_miss_latency::total 52997.780808                       # average WriteReq mshr miss latency
system.cpu0.dcache.demand_avg_mshr_miss_latency::cpu0.data 47113.170098                       # average overall mshr miss latency
system.cpu0.dcache.demand_avg_mshr_miss_latency::total 47113.170098                       # average overall mshr miss latency
system.cpu0.dcache.overall_avg_mshr_miss_latency::cpu0.data 47113.170098                       # average overall mshr miss latency
system.cpu0.dcache.overall_avg_mshr_miss_latency::total 47113.170098                       # average overall mshr miss latency
system.cpu0.dtb_walker_cache.tags.pwrStateResidencyTicks::UNDEFINED   4773984903                       # Cumulative time (in ticks) in various power states
system.cpu0.dtb_walker_cache.tags.replacements            0                       # number of replacements
system.cpu0.dtb_walker_cache.tags.tagsinuse            0                       # Cycle average of tags in use
system.cpu0.dtb_walker_cache.tags.total_refs            0                       # Total number of references to valid blocks.
system.cpu0.dtb_walker_cache.tags.sampled_refs            0                       # Sample count of references to valid blocks.
system.cpu0.dtb_walker_cache.tags.avg_refs          nan                       # Average number of references to valid blocks.
system.cpu0.dtb_walker_cache.tags.warmup_cycle            0                       # Cycle when the warmup percentage was hit.
system.cpu0.dtb_walker_cache.tags.tag_accesses            0                       # Number of tag accesses
system.cpu0.dtb_walker_cache.tags.data_accesses            0                       # Number of data accesses
system.cpu0.dtb_walker_cache.pwrStateResidencyTicks::UNDEFINED   4773984903                       # Cumulative time (in ticks) in various power states
system.cpu0.dtb_walker_cache.blocked_cycles::no_mshrs            0                       # number of cycles access was blocked
system.cpu0.dtb_walker_cache.blocked_cycles::no_targets            0                       # number of cycles access was blocked
system.cpu0.dtb_walker_cache.blocked::no_mshrs            0                       # number of cycles access was blocked
system.cpu0.dtb_walker_cache.blocked::no_targets            0                       # number of cycles access was blocked
system.cpu0.dtb_walker_cache.avg_blocked_cycles::no_mshrs          nan                       # average number of cycles each access was blocked
system.cpu0.dtb_walker_cache.avg_blocked_cycles::no_targets          nan                       # average number of cycles each access was blocked
system.cpu0.icache.tags.pwrStateResidencyTicks::UNDEFINED   4773984903                       # Cumulative time (in ticks) in various power states
system.cpu0.icache.tags.replacements             8646                       # number of replacements
system.cpu0.icache.tags.tagsinuse          509.755887                       # Cycle average of tags in use
system.cpu0.icache.tags.total_refs            2251148                       # Total number of references to valid blocks.
system.cpu0.icache.tags.sampled_refs             9158                       # Sample count of references to valid blocks.
system.cpu0.icache.tags.avg_refs           245.812186                       # Average number of references to valid blocks.
system.cpu0.icache.tags.warmup_cycle            76257                       # Cycle when the warmup percentage was hit.
system.cpu0.icache.tags.occ_blocks::cpu0.inst   509.755887                       # Average occupied blocks per requestor
system.cpu0.icache.tags.occ_percent::cpu0.inst     0.995617                       # Average percentage of cache occupancy
system.cpu0.icache.tags.occ_percent::total     0.995617                       # Average percentage of cache occupancy
system.cpu0.icache.tags.occ_task_id_blocks::1024          512                       # Occupied blocks per task id
system.cpu0.icache.tags.age_task_id_blocks_1024::1          382                       # Occupied blocks per task id
system.cpu0.icache.tags.age_task_id_blocks_1024::2          102                       # Occupied blocks per task id
system.cpu0.icache.tags.age_task_id_blocks_1024::3           28                       # Occupied blocks per task id
system.cpu0.icache.tags.occ_task_id_percent::1024            1                       # Percentage of cache occupancy per task id
system.cpu0.icache.tags.tag_accesses         18105719                       # Number of tag accesses
system.cpu0.icache.tags.data_accesses        18105719                       # Number of data accesses
system.cpu0.icache.pwrStateResidencyTicks::UNDEFINED   4773984903                       # Cumulative time (in ticks) in various power states
system.cpu0.icache.ReadReq_hits::cpu0.inst      2251149                       # number of ReadReq hits
system.cpu0.icache.ReadReq_hits::total        2251149                       # number of ReadReq hits
system.cpu0.icache.demand_hits::cpu0.inst      2251149                       # number of demand (read+write) hits
system.cpu0.icache.demand_hits::total         2251149                       # number of demand (read+write) hits
system.cpu0.icache.overall_hits::cpu0.inst      2251149                       # number of overall hits
system.cpu0.icache.overall_hits::total        2251149                       # number of overall hits
system.cpu0.icache.ReadReq_misses::cpu0.inst        10913                       # number of ReadReq misses
system.cpu0.icache.ReadReq_misses::total        10913                       # number of ReadReq misses
system.cpu0.icache.demand_misses::cpu0.inst        10913                       # number of demand (read+write) misses
system.cpu0.icache.demand_misses::total         10913                       # number of demand (read+write) misses
system.cpu0.icache.overall_misses::cpu0.inst        10913                       # number of overall misses
system.cpu0.icache.overall_misses::total        10913                       # number of overall misses
system.cpu0.icache.ReadReq_miss_latency::cpu0.inst    342481506                       # number of ReadReq miss cycles
system.cpu0.icache.ReadReq_miss_latency::total    342481506                       # number of ReadReq miss cycles
system.cpu0.icache.demand_miss_latency::cpu0.inst    342481506                       # number of demand (read+write) miss cycles
system.cpu0.icache.demand_miss_latency::total    342481506                       # number of demand (read+write) miss cycles
system.cpu0.icache.overall_miss_latency::cpu0.inst    342481506                       # number of overall miss cycles
system.cpu0.icache.overall_miss_latency::total    342481506                       # number of overall miss cycles
system.cpu0.icache.ReadReq_accesses::cpu0.inst      2262062                       # number of ReadReq accesses(hits+misses)
system.cpu0.icache.ReadReq_accesses::total      2262062                       # number of ReadReq accesses(hits+misses)
system.cpu0.icache.demand_accesses::cpu0.inst      2262062                       # number of demand (read+write) accesses
system.cpu0.icache.demand_accesses::total      2262062                       # number of demand (read+write) accesses
system.cpu0.icache.overall_accesses::cpu0.inst      2262062                       # number of overall (read+write) accesses
system.cpu0.icache.overall_accesses::total      2262062                       # number of overall (read+write) accesses
system.cpu0.icache.ReadReq_miss_rate::cpu0.inst     0.004824                       # miss rate for ReadReq accesses
system.cpu0.icache.ReadReq_miss_rate::total     0.004824                       # miss rate for ReadReq accesses
system.cpu0.icache.demand_miss_rate::cpu0.inst     0.004824                       # miss rate for demand accesses
system.cpu0.icache.demand_miss_rate::total     0.004824                       # miss rate for demand accesses
system.cpu0.icache.overall_miss_rate::cpu0.inst     0.004824                       # miss rate for overall accesses
system.cpu0.icache.overall_miss_rate::total     0.004824                       # miss rate for overall accesses
system.cpu0.icache.ReadReq_avg_miss_latency::cpu0.inst 31382.892514                       # average ReadReq miss latency
system.cpu0.icache.ReadReq_avg_miss_latency::total 31382.892514                       # average ReadReq miss latency
system.cpu0.icache.demand_avg_miss_latency::cpu0.inst 31382.892514                       # average overall miss latency
system.cpu0.icache.demand_avg_miss_latency::total 31382.892514                       # average overall miss latency
system.cpu0.icache.overall_avg_miss_latency::cpu0.inst 31382.892514                       # average overall miss latency
system.cpu0.icache.overall_avg_miss_latency::total 31382.892514                       # average overall miss latency
system.cpu0.icache.blocked_cycles::no_mshrs         3300                       # number of cycles access was blocked
system.cpu0.icache.blocked_cycles::no_targets          110                       # number of cycles access was blocked
system.cpu0.icache.blocked::no_mshrs               45                       # number of cycles access was blocked
system.cpu0.icache.blocked::no_targets              1                       # number of cycles access was blocked
system.cpu0.icache.avg_blocked_cycles::no_mshrs    73.333333                       # average number of cycles each access was blocked
system.cpu0.icache.avg_blocked_cycles::no_targets          110                       # average number of cycles each access was blocked
system.cpu0.icache.writebacks::writebacks         8646                       # number of writebacks
system.cpu0.icache.writebacks::total             8646                       # number of writebacks
system.cpu0.icache.ReadReq_mshr_hits::cpu0.inst         1690                       # number of ReadReq MSHR hits
system.cpu0.icache.ReadReq_mshr_hits::total         1690                       # number of ReadReq MSHR hits
system.cpu0.icache.demand_mshr_hits::cpu0.inst         1690                       # number of demand (read+write) MSHR hits
system.cpu0.icache.demand_mshr_hits::total         1690                       # number of demand (read+write) MSHR hits
system.cpu0.icache.overall_mshr_hits::cpu0.inst         1690                       # number of overall MSHR hits
system.cpu0.icache.overall_mshr_hits::total         1690                       # number of overall MSHR hits
system.cpu0.icache.ReadReq_mshr_misses::cpu0.inst         9223                       # number of ReadReq MSHR misses
system.cpu0.icache.ReadReq_mshr_misses::total         9223                       # number of ReadReq MSHR misses
system.cpu0.icache.demand_mshr_misses::cpu0.inst         9223                       # number of demand (read+write) MSHR misses
system.cpu0.icache.demand_mshr_misses::total         9223                       # number of demand (read+write) MSHR misses
system.cpu0.icache.overall_mshr_misses::cpu0.inst         9223                       # number of overall MSHR misses
system.cpu0.icache.overall_mshr_misses::total         9223                       # number of overall MSHR misses
system.cpu0.icache.ReadReq_mshr_miss_latency::cpu0.inst    247912504                       # number of ReadReq MSHR miss cycles
system.cpu0.icache.ReadReq_mshr_miss_latency::total    247912504                       # number of ReadReq MSHR miss cycles
system.cpu0.icache.demand_mshr_miss_latency::cpu0.inst    247912504                       # number of demand (read+write) MSHR miss cycles
system.cpu0.icache.demand_mshr_miss_latency::total    247912504                       # number of demand (read+write) MSHR miss cycles
system.cpu0.icache.overall_mshr_miss_latency::cpu0.inst    247912504                       # number of overall MSHR miss cycles
system.cpu0.icache.overall_mshr_miss_latency::total    247912504                       # number of overall MSHR miss cycles
system.cpu0.icache.ReadReq_mshr_miss_rate::cpu0.inst     0.004077                       # mshr miss rate for ReadReq accesses
system.cpu0.icache.ReadReq_mshr_miss_rate::total     0.004077                       # mshr miss rate for ReadReq accesses
system.cpu0.icache.demand_mshr_miss_rate::cpu0.inst     0.004077                       # mshr miss rate for demand accesses
system.cpu0.icache.demand_mshr_miss_rate::total     0.004077                       # mshr miss rate for demand accesses
system.cpu0.icache.overall_mshr_miss_rate::cpu0.inst     0.004077                       # mshr miss rate for overall accesses
system.cpu0.icache.overall_mshr_miss_rate::total     0.004077                       # mshr miss rate for overall accesses
system.cpu0.icache.ReadReq_avg_mshr_miss_latency::cpu0.inst 26879.811775                       # average ReadReq mshr miss latency
system.cpu0.icache.ReadReq_avg_mshr_miss_latency::total 26879.811775                       # average ReadReq mshr miss latency
system.cpu0.icache.demand_avg_mshr_miss_latency::cpu0.inst 26879.811775                       # average overall mshr miss latency
system.cpu0.icache.demand_avg_mshr_miss_latency::total 26879.811775                       # average overall mshr miss latency
system.cpu0.icache.overall_avg_mshr_miss_latency::cpu0.inst 26879.811775                       # average overall mshr miss latency
system.cpu0.icache.overall_avg_mshr_miss_latency::total 26879.811775                       # average overall mshr miss latency
system.cpu0.itb_walker_cache.tags.pwrStateResidencyTicks::UNDEFINED   4773984903                       # Cumulative time (in ticks) in various power states
system.cpu0.itb_walker_cache.tags.replacements            0                       # number of replacements
system.cpu0.itb_walker_cache.tags.tagsinuse            0                       # Cycle average of tags in use
system.cpu0.itb_walker_cache.tags.total_refs            0                       # Total number of references to valid blocks.
system.cpu0.itb_walker_cache.tags.sampled_refs            0                       # Sample count of references to valid blocks.
system.cpu0.itb_walker_cache.tags.avg_refs          nan                       # Average number of references to valid blocks.
system.cpu0.itb_walker_cache.tags.warmup_cycle            0                       # Cycle when the warmup percentage was hit.
system.cpu0.itb_walker_cache.tags.tag_accesses            0                       # Number of tag accesses
system.cpu0.itb_walker_cache.tags.data_accesses            0                       # Number of data accesses
system.cpu0.itb_walker_cache.pwrStateResidencyTicks::UNDEFINED   4773984903                       # Cumulative time (in ticks) in various power states
system.cpu0.itb_walker_cache.blocked_cycles::no_mshrs            0                       # number of cycles access was blocked
system.cpu0.itb_walker_cache.blocked_cycles::no_targets            0                       # number of cycles access was blocked
system.cpu0.itb_walker_cache.blocked::no_mshrs            0                       # number of cycles access was blocked
system.cpu0.itb_walker_cache.blocked::no_targets            0                       # number of cycles access was blocked
system.cpu0.itb_walker_cache.avg_blocked_cycles::no_mshrs          nan                       # average number of cycles each access was blocked
system.cpu0.itb_walker_cache.avg_blocked_cycles::no_targets          nan                       # average number of cycles each access was blocked
system.cpu0.l2cache.tags.pwrStateResidencyTicks::UNDEFINED   4773984903                       # Cumulative time (in ticks) in various power states
system.cpu0.l2cache.tags.replacements           36219                       # number of replacements
system.cpu0.l2cache.tags.tagsinuse        3917.204478                       # Cycle average of tags in use
system.cpu0.l2cache.tags.total_refs             69576                       # Total number of references to valid blocks.
system.cpu0.l2cache.tags.sampled_refs           40315                       # Sample count of references to valid blocks.
system.cpu0.l2cache.tags.avg_refs            1.725809                       # Average number of references to valid blocks.
system.cpu0.l2cache.tags.warmup_cycle           73000                       # Cycle when the warmup percentage was hit.
system.cpu0.l2cache.tags.occ_blocks::writebacks   218.799037                       # Average occupied blocks per requestor
system.cpu0.l2cache.tags.occ_blocks::cpu0.inst   515.989477                       # Average occupied blocks per requestor
system.cpu0.l2cache.tags.occ_blocks::cpu0.data  3182.415964                       # Average occupied blocks per requestor
system.cpu0.l2cache.tags.occ_percent::writebacks     0.053418                       # Average percentage of cache occupancy
system.cpu0.l2cache.tags.occ_percent::cpu0.inst     0.125974                       # Average percentage of cache occupancy
system.cpu0.l2cache.tags.occ_percent::cpu0.data     0.776957                       # Average percentage of cache occupancy
system.cpu0.l2cache.tags.occ_percent::total     0.956349                       # Average percentage of cache occupancy
system.cpu0.l2cache.tags.occ_task_id_blocks::1024         4096                       # Occupied blocks per task id
system.cpu0.l2cache.tags.age_task_id_blocks_1024::1           11                       # Occupied blocks per task id
system.cpu0.l2cache.tags.age_task_id_blocks_1024::2          253                       # Occupied blocks per task id
system.cpu0.l2cache.tags.age_task_id_blocks_1024::3         3832                       # Occupied blocks per task id
system.cpu0.l2cache.tags.occ_task_id_percent::1024            1                       # Percentage of cache occupancy per task id
system.cpu0.l2cache.tags.tag_accesses          480059                       # Number of tag accesses
system.cpu0.l2cache.tags.data_accesses         480059                       # Number of data accesses
system.cpu0.l2cache.pwrStateResidencyTicks::UNDEFINED   4773984903                       # Cumulative time (in ticks) in various power states
system.cpu0.l2cache.WritebackDirty_hits::writebacks        43004                       # number of WritebackDirty hits
system.cpu0.l2cache.WritebackDirty_hits::total        43004                       # number of WritebackDirty hits
system.cpu0.l2cache.WritebackClean_hits::writebacks         8641                       # number of WritebackClean hits
system.cpu0.l2cache.WritebackClean_hits::total         8641                       # number of WritebackClean hits
system.cpu0.l2cache.UpgradeReq_hits::cpu0.data          285                       # number of UpgradeReq hits
system.cpu0.l2cache.UpgradeReq_hits::total          285                       # number of UpgradeReq hits
system.cpu0.l2cache.ReadExReq_hits::cpu0.data         4926                       # number of ReadExReq hits
system.cpu0.l2cache.ReadExReq_hits::total         4926                       # number of ReadExReq hits
system.cpu0.l2cache.ReadCleanReq_hits::cpu0.inst         6075                       # number of ReadCleanReq hits
system.cpu0.l2cache.ReadCleanReq_hits::total         6075                       # number of ReadCleanReq hits
system.cpu0.l2cache.ReadSharedReq_hits::cpu0.data         5519                       # number of ReadSharedReq hits
system.cpu0.l2cache.ReadSharedReq_hits::total         5519                       # number of ReadSharedReq hits
system.cpu0.l2cache.demand_hits::cpu0.inst         6075                       # number of demand (read+write) hits
[...]
system.l3.demand_mshr_miss_latency::cpu3.inst    168452872                       # number of demand (read+write) MSHR miss cycles
system.l3.demand_mshr_miss_latency::cpu3.data   1654728759                       # number of demand (read+write) MSHR miss cycles
system.l3.demand_mshr_miss_latency::total   7324536107                       # number of demand (read+write) MSHR miss cycles
system.l3.overall_mshr_miss_latency::cpu0.inst    174941696                       # number of overall MSHR miss cycles
system.l3.overall_mshr_miss_latency::cpu0.data   1606945841                       # number of overall MSHR miss cycles
system.l3.overall_mshr_miss_latency::cpu1.inst    169155978                       # number of overall MSHR miss cycles
system.l3.overall_mshr_miss_latency::cpu1.data   1686648940                       # number of overall MSHR miss cycles
system.l3.overall_mshr_miss_latency::cpu2.inst    174091711                       # number of overall MSHR miss cycles
system.l3.overall_mshr_miss_latency::cpu2.data   1689570310                       # number of overall MSHR miss cycles
system.l3.overall_mshr_miss_latency::cpu3.inst    168452872                       # number of overall MSHR miss cycles
system.l3.overall_mshr_miss_latency::cpu3.data   1654728759                       # number of overall MSHR miss cycles
system.l3.overall_mshr_miss_latency::total   7324536107                       # number of overall MSHR miss cycles
system.l3.CleanEvict_mshr_miss_rate::writebacks          inf                       # mshr miss rate for CleanEvict accesses
system.l3.CleanEvict_mshr_miss_rate::total          inf                       # mshr miss rate for CleanEvict accesses
system.l3.ReadExReq_mshr_miss_rate::cpu0.data     0.947396                       # mshr miss rate for ReadExReq accesses
system.l3.ReadExReq_mshr_miss_rate::cpu1.data     0.949134                       # mshr miss rate for ReadExReq accesses
system.l3.ReadExReq_mshr_miss_rate::cpu2.data     0.950047                       # mshr miss rate for ReadExReq accesses
system.l3.ReadExReq_mshr_miss_rate::cpu3.data     0.948224                       # mshr miss rate for ReadExReq accesses
system.l3.ReadExReq_mshr_miss_rate::total     0.948700                       # mshr miss rate for ReadExReq accesses
system.l3.ReadSharedReq_mshr_miss_rate::cpu0.inst     0.920728                       # mshr miss rate for ReadSharedReq accesses
system.l3.ReadSharedReq_mshr_miss_rate::cpu0.data     0.554325                       # mshr miss rate for ReadSharedReq accesses
system.l3.ReadSharedReq_mshr_miss_rate::cpu1.inst     0.911396                       # mshr miss rate for ReadSharedReq accesses
system.l3.ReadSharedReq_mshr_miss_rate::cpu1.data     0.545688                       # mshr miss rate for ReadSharedReq accesses
system.l3.ReadSharedReq_mshr_miss_rate::cpu2.inst     0.905367                       # mshr miss rate for ReadSharedReq accesses
system.l3.ReadSharedReq_mshr_miss_rate::cpu2.data     0.566967                       # mshr miss rate for ReadSharedReq accesses
system.l3.ReadSharedReq_mshr_miss_rate::cpu3.inst     0.925291                       # mshr miss rate for ReadSharedReq accesses
system.l3.ReadSharedReq_mshr_miss_rate::cpu3.data     0.582832                       # mshr miss rate for ReadSharedReq accesses
system.l3.ReadSharedReq_mshr_miss_rate::total     0.781956                       # mshr miss rate for ReadSharedReq accesses
system.l3.demand_mshr_miss_rate::cpu0.inst     0.920728                       # mshr miss rate for demand accesses
system.l3.demand_mshr_miss_rate::cpu0.data     0.926552                       # mshr miss rate for demand accesses
system.l3.demand_mshr_miss_rate::cpu1.inst     0.911396                       # mshr miss rate for demand accesses
system.l3.demand_mshr_miss_rate::cpu1.data     0.927134                       # mshr miss rate for demand accesses
system.l3.demand_mshr_miss_rate::cpu2.inst     0.905367                       # mshr miss rate for demand accesses
system.l3.demand_mshr_miss_rate::cpu2.data     0.929767                       # mshr miss rate for demand accesses
system.l3.demand_mshr_miss_rate::cpu3.inst     0.925291                       # mshr miss rate for demand accesses
system.l3.demand_mshr_miss_rate::cpu3.data     0.929477                       # mshr miss rate for demand accesses
system.l3.demand_mshr_miss_rate::total       0.927222                       # mshr miss rate for demand accesses
system.l3.overall_mshr_miss_rate::cpu0.inst     0.920728                       # mshr miss rate for overall accesses
system.l3.overall_mshr_miss_rate::cpu0.data     0.926552                       # mshr miss rate for overall accesses
system.l3.overall_mshr_miss_rate::cpu1.inst     0.911396                       # mshr miss rate for overall accesses
system.l3.overall_mshr_miss_rate::cpu1.data     0.927134                       # mshr miss rate for overall accesses
system.l3.overall_mshr_miss_rate::cpu2.inst     0.905367                       # mshr miss rate for overall accesses
system.l3.overall_mshr_miss_rate::cpu2.data     0.929767                       # mshr miss rate for overall accesses
system.l3.overall_mshr_miss_rate::cpu3.inst     0.925291                       # mshr miss rate for overall accesses
system.l3.overall_mshr_miss_rate::cpu3.data     0.929477                       # mshr miss rate for overall accesses
system.l3.overall_mshr_miss_rate::total      0.927222                       # mshr miss rate for overall accesses
system.l3.ReadExReq_avg_mshr_miss_latency::cpu0.data 48016.665264                       # average ReadExReq mshr miss latency
system.l3.ReadExReq_avg_mshr_miss_latency::cpu1.data 50602.988645                       # average ReadExReq mshr miss latency
system.l3.ReadExReq_avg_mshr_miss_latency::cpu2.data 50642.010777                       # average ReadExReq mshr miss latency
system.l3.ReadExReq_avg_mshr_miss_latency::cpu3.data 49421.113041                       # average ReadExReq mshr miss latency
system.l3.ReadExReq_avg_mshr_miss_latency::total 49670.783906                       # average ReadExReq mshr miss latency
system.l3.ReadSharedReq_avg_mshr_miss_latency::cpu0.inst 61729.603387                       # average ReadSharedReq mshr miss latency
system.l3.ReadSharedReq_avg_mshr_miss_latency::cpu0.data 63523.583254                       # average ReadSharedReq mshr miss latency
system.l3.ReadSharedReq_avg_mshr_miss_latency::cpu1.inst 59582.943994                       # average ReadSharedReq mshr miss latency
system.l3.ReadSharedReq_avg_mshr_miss_latency::cpu1.data 60648.102540                       # average ReadSharedReq mshr miss latency
system.l3.ReadSharedReq_avg_mshr_miss_latency::cpu2.inst 61063.385128                       # average ReadSharedReq mshr miss latency
system.l3.ReadSharedReq_avg_mshr_miss_latency::cpu2.data 59532.395892                       # average ReadSharedReq mshr miss latency
system.l3.ReadSharedReq_avg_mshr_miss_latency::cpu3.inst 58879.018525                       # average ReadSharedReq mshr miss latency
system.l3.ReadSharedReq_avg_mshr_miss_latency::cpu3.data 65565.202627                       # average ReadSharedReq mshr miss latency
system.l3.ReadSharedReq_avg_mshr_miss_latency::total 60854.833589                       # average ReadSharedReq mshr miss latency
system.l3.demand_avg_mshr_miss_latency::cpu0.inst 61729.603387                       # average overall mshr miss latency
system.l3.demand_avg_mshr_miss_latency::cpu0.data 48508.643735                       # average overall mshr miss latency
system.l3.demand_avg_mshr_miss_latency::cpu1.inst 59582.943994                       # average overall mshr miss latency
system.l3.demand_avg_mshr_miss_latency::cpu1.data 50925.390700                       # average overall mshr miss latency
system.l3.demand_avg_mshr_miss_latency::cpu2.inst 61063.385128                       # average overall mshr miss latency
system.l3.demand_avg_mshr_miss_latency::cpu2.data 50929.022155                       # average overall mshr miss latency
system.l3.demand_avg_mshr_miss_latency::cpu3.inst 58879.018525                       # average overall mshr miss latency
system.l3.demand_avg_mshr_miss_latency::cpu3.data 49940.507002                       # average overall mshr miss latency
system.l3.demand_avg_mshr_miss_latency::total 50885.683072                       # average overall mshr miss latency
system.l3.overall_avg_mshr_miss_latency::cpu0.inst 61729.603387                       # average overall mshr miss latency
system.l3.overall_avg_mshr_miss_latency::cpu0.data 48508.643735                       # average overall mshr miss latency
system.l3.overall_avg_mshr_miss_latency::cpu1.inst 59582.943994                       # average overall mshr miss latency
system.l3.overall_avg_mshr_miss_latency::cpu1.data 50925.390700                       # average overall mshr miss latency
system.l3.overall_avg_mshr_miss_latency::cpu2.inst 61063.385128                       # average overall mshr miss latency
system.l3.overall_avg_mshr_miss_latency::cpu2.data 50929.022155                       # average overall mshr miss latency
system.l3.overall_avg_mshr_miss_latency::cpu3.inst 58879.018525                       # average overall mshr miss latency
system.l3.overall_avg_mshr_miss_latency::cpu3.data 49940.507002                       # average overall mshr miss latency
system.l3.overall_avg_mshr_miss_latency::total 50885.683072                       # average overall mshr miss latency
system.membus.snoop_filter.tot_requests        158658                       # Total number of requests made to the snoop filter.
system.membus.snoop_filter.hit_single_requests        14717                       # Number of requests hitting in the snoop filter with a single holder of the requested data.
system.membus.snoop_filter.hit_multi_requests            0                       # Number of requests hitting in the snoop filter with multiple (>1) holders of the requested data.
system.membus.snoop_filter.tot_snoops               0                       # Total number of snoops made to the snoop filter.
system.membus.snoop_filter.hit_single_snoops            0                       # Number of snoops hitting in the snoop filter with a single holder of the requested data.
system.membus.snoop_filter.hit_multi_snoops            0                       # Number of snoops hitting in the snoop filter with multiple (>1) holders of the requested data.
system.membus.pwrStateResidencyTicks::UNDEFINED   4773984903                       # Cumulative time (in ticks) in various power states
system.membus.trans_dist::ReadResp              15636                       # Transaction distribution
system.membus.trans_dist::WritebackDirty        11686                       # Transaction distribution
system.membus.trans_dist::CleanEvict             3031                       # Transaction distribution
system.membus.trans_dist::ReadExReq            128305                       # Transaction distribution
system.membus.trans_dist::ReadExResp           128305                       # Transaction distribution
system.membus.trans_dist::ReadSharedReq         15636                       # Transaction distribution
system.membus.pkt_count_system.l3.mem_side::system.mem_ctrls.port       302599                       # Packet count per connected master and slave (bytes)
system.membus.pkt_count_system.l3.mem_side::total       302599                       # Packet count per connected master and slave (bytes)
system.membus.pkt_count::total                 302599                       # Packet count per connected master and slave (bytes)
system.membus.pkt_size_system.l3.mem_side::system.mem_ctrls.port      9960128                       # Cumulative packet size per connected master and slave (bytes)
system.membus.pkt_size_system.l3.mem_side::total      9960128                       # Cumulative packet size per connected master and slave (bytes)
system.membus.pkt_size::total                 9960128                       # Cumulative packet size per connected master and slave (bytes)
system.membus.snoops                                0                       # Total snoops (count)
system.membus.snoopTraffic                          0                       # Total snoop traffic (bytes)
system.membus.snoop_fanout::samples            143941                       # Request fanout histogram
system.membus.snoop_fanout::mean                    0                       # Request fanout histogram
system.membus.snoop_fanout::stdev                   0                       # Request fanout histogram
system.membus.snoop_fanout::underflows              0      0.00%      0.00% # Request fanout histogram
system.membus.snoop_fanout::0                  143941    100.00%    100.00% # Request fanout histogram
system.membus.snoop_fanout::1                       0      0.00%    100.00% # Request fanout histogram
system.membus.snoop_fanout::overflows               0      0.00%    100.00% # Request fanout histogram
system.membus.snoop_fanout::min_value               0                       # Request fanout histogram
system.membus.snoop_fanout::max_value               0                       # Request fanout histogram
system.membus.snoop_fanout::total              143941                       # Request fanout histogram
system.membus.reqLayer8.occupancy           252656846                       # Layer occupancy (ticks)
system.membus.reqLayer8.utilization               5.3                       # Layer utilization (%)
system.membus.respLayer1.occupancy          773249130                       # Layer occupancy (ticks)
system.membus.respLayer1.utilization             16.2                       # Layer utilization (%)
system.tol3bus.snoop_filter.tot_requests       294063                       # Total number of requests made to the snoop filter.
system.tol3bus.snoop_filter.hit_single_requests       138835                       # Number of requests hitting in the snoop filter with a single holder of the requested data.
system.tol3bus.snoop_filter.hit_multi_requests            0                       # Number of requests hitting in the snoop filter with multiple (>1) holders of the requested data.
system.tol3bus.snoop_filter.tot_snoops            799                       # Total number of snoops made to the snoop filter.
system.tol3bus.snoop_filter.hit_single_snoops          799                       # Number of snoops hitting in the snoop filter with a single holder of the requested data.
system.tol3bus.snoop_filter.hit_multi_snoops            0                       # Number of snoops hitting in the snoop filter with multiple (>1) holders of the requested data.
system.tol3bus.pwrStateResidencyTicks::UNDEFINED   4773984903                       # Cumulative time (in ticks) in various power states
system.tol3bus.trans_dist::ReadResp             19996                       # Transaction distribution
system.tol3bus.trans_dist::WritebackDirty       141260                       # Transaction distribution
system.tol3bus.trans_dist::CleanEvict           12669                       # Transaction distribution
system.tol3bus.trans_dist::UpgradeReq               2                       # Transaction distribution
system.tol3bus.trans_dist::UpgradeResp              2                       # Transaction distribution
system.tol3bus.trans_dist::ReadExReq           135243                       # Transaction distribution
system.tol3bus.trans_dist::ReadExResp          135243                       # Transaction distribution
system.tol3bus.trans_dist::ReadSharedReq        19996                       # Transaction distribution
system.tol3bus.pkt_count_system.cpu0.l2cache.mem_side::system.l3.cpu_side       112389                       # Packet count per connected master and slave (bytes)
system.tol3bus.pkt_count_system.cpu1.l2cache.mem_side::system.l3.cpu_side       112425                       # Packet count per connected master and slave (bytes)
system.tol3bus.pkt_count_system.cpu2.l2cache.mem_side::system.l3.cpu_side       112382                       # Packet count per connected master and slave (bytes)
system.tol3bus.pkt_count_system.cpu3.l2cache.mem_side::system.l3.cpu_side       112108                       # Packet count per connected master and slave (bytes)
system.tol3bus.pkt_count::total                449304                       # Packet count per connected master and slave (bytes)
system.tol3bus.pkt_size_system.cpu0.l2cache.mem_side::system.l3.cpu_side      4561920                       # Cumulative packet size per connected master and slave (bytes)
system.tol3bus.pkt_size_system.cpu1.l2cache.mem_side::system.l3.cpu_side      4558528                       # Cumulative packet size per connected master and slave (bytes)
system.tol3bus.pkt_size_system.cpu2.l2cache.mem_side::system.l3.cpu_side      4556480                       # Cumulative packet size per connected master and slave (bytes)
system.tol3bus.pkt_size_system.cpu3.l2cache.mem_side::system.l3.cpu_side      4551104                       # Cumulative packet size per connected master and slave (bytes)
system.tol3bus.pkt_size::total               18228032                       # Cumulative packet size per connected master and slave (bytes)
system.tol3bus.snoops                           15107                       # Total snoops (count)
system.tol3bus.snoopTraffic                    747904                       # Total snoop traffic (bytes)
system.tol3bus.snoop_fanout::samples           170348                       # Request fanout histogram
system.tol3bus.snoop_fanout::mean            0.004690                       # Request fanout histogram
system.tol3bus.snoop_fanout::stdev           0.068326                       # Request fanout histogram
system.tol3bus.snoop_fanout::underflows             0      0.00%      0.00% # Request fanout histogram
system.tol3bus.snoop_fanout::0                 169549     99.53%     99.53% # Request fanout histogram
system.tol3bus.snoop_fanout::1                    799      0.47%    100.00% # Request fanout histogram
system.tol3bus.snoop_fanout::2                      0      0.00%    100.00% # Request fanout histogram
system.tol3bus.snoop_fanout::3                      0      0.00%    100.00% # Request fanout histogram
system.tol3bus.snoop_fanout::4                      0      0.00%    100.00% # Request fanout histogram
system.tol3bus.snoop_fanout::overflows              0      0.00%    100.00% # Request fanout histogram
system.tol3bus.snoop_fanout::min_value              0                       # Request fanout histogram
system.tol3bus.snoop_fanout::max_value              1                       # Request fanout histogram
system.tol3bus.snoop_fanout::total             170348                       # Request fanout histogram
system.tol3bus.reqLayer0.occupancy          669716078                       # Layer occupancy (ticks)
system.tol3bus.reqLayer0.utilization             14.0                       # Layer utilization (%)
system.tol3bus.respLayer0.occupancy         123590996                       # Layer occupancy (ticks)
system.tol3bus.respLayer0.utilization             2.6                       # Layer utilization (%)
system.tol3bus.respLayer1.occupancy         123607694                       # Layer occupancy (ticks)
system.tol3bus.respLayer1.utilization             2.6                       # Layer utilization (%)
system.tol3bus.respLayer2.occupancy         123596678                       # Layer occupancy (ticks)
system.tol3bus.respLayer2.utilization             2.6                       # Layer utilization (%)
system.tol3bus.respLayer3.occupancy         123251789                       # Layer occupancy (ticks)
system.tol3bus.respLayer3.utilization             2.6                       # Layer utilization (%)

---------- End Simulation Statistics   ----------
