
---------- Begin Simulation Statistics ----------
sim_seconds                                  0.000106                       # Number of seconds simulated
sim_ticks                                   106142751                       # Number of ticks simulated
final_tick                                  106142751                       # Number of ticks from beginning of simulation (restored from checkpoints and never reset)
sim_freq                                 1000000000000                       # Frequency of simulated ticks
host_inst_rate                                  50441                       # Simulator instruction rate (inst/s)
host_op_rate                                   100490                       # Simulator op (including micro ops) rate (op/s)
host_tick_rate                               38403183                       # Simulator tick rate (ticks/s)
host_mem_usage                                8779516                       # Number of bytes of host memory used
host_seconds                                     2.76                       # Real time elapsed on the host
sim_insts                                      139413                       # Number of instructions simulated
sim_ops                                        277743                       # Number of ops (including micro ops) simulated
system.voltage_domain.voltage                       1                       # Voltage in Volts
system.clk_domain.clock                          1000                       # Clock period in ticks
system.mem_ctrls.pwrStateResidencyTicks::UNDEFINED    106142751                       # Cumulative time (in ticks) in various power states
system.mem_ctrls.bytes_read::cpu0.inst          48000                       # Number of bytes read from this memory
system.mem_ctrls.bytes_read::cpu0.data          79936                       # Number of bytes read from this memory
system.mem_ctrls.bytes_read::cpu1.inst          48064                       # Number of bytes read from this memory
system.mem_ctrls.bytes_read::cpu1.data          80384                       # Number of bytes read from this memory
system.mem_ctrls.bytes_read::cpu2.inst          48192                       # Number of bytes read from this memory
system.mem_ctrls.bytes_read::cpu2.data          77248                       # Number of bytes read from this memory
system.mem_ctrls.bytes_read::cpu3.inst          47744                       # Number of bytes read from this memory
system.mem_ctrls.bytes_read::cpu3.data          76672                       # Number of bytes read from this memory
system.mem_ctrls.bytes_read::total             506240                       # Number of bytes read from this memory
system.mem_ctrls.bytes_inst_read::cpu0.inst        48000                       # Number of instructions bytes read from this memory
system.mem_ctrls.bytes_inst_read::cpu1.inst        48064                       # Number of instructions bytes read from this memory
system.mem_ctrls.bytes_inst_read::cpu2.inst        48192                       # Number of instructions bytes read from this memory
system.mem_ctrls.bytes_inst_read::cpu3.inst        47744                       # Number of instructions bytes read from this memory
system.mem_ctrls.bytes_inst_read::total        192000                       # Number of instructions bytes read from this memory
system.mem_ctrls.num_reads::cpu0.inst             750                       # Number of read requests responded to by this memory
system.mem_ctrls.num_reads::cpu0.data            1249                       # Number of read requests responded to by this memory
system.mem_ctrls.num_reads::cpu1.inst             751                       # Number of read requests responded to by this memory
system.mem_ctrls.num_reads::cpu1.data            1256                       # Number of read requests responded to by this memory
system.mem_ctrls.num_reads::cpu2.inst             753                       # Number of read requests responded to by this memory
system.mem_ctrls.num_reads::cpu2.data            1207                       # Number of read requests responded to by this memory
system.mem_ctrls.num_reads::cpu3.inst             746                       # Number of read requests responded to by this memory
system.mem_ctrls.num_reads::cpu3.data            1198                       # Number of read requests responded to by this memory
system.mem_ctrls.num_reads::total                7910                       # Number of read requests responded to by this memory
system.mem_ctrls.bw_read::cpu0.inst         452221179                       # Total read bandwidth from this memory (bytes/s)
system.mem_ctrls.bw_read::cpu0.data         753099003                       # Total read bandwidth from this memory (bytes/s)
system.mem_ctrls.bw_read::cpu1.inst         452824141                       # Total read bandwidth from this memory (bytes/s)
system.mem_ctrls.bw_read::cpu1.data         757319734                       # Total read bandwidth from this memory (bytes/s)
system.mem_ctrls.bw_read::cpu2.inst         454030064                       # Total read bandwidth from this memory (bytes/s)
system.mem_ctrls.bw_read::cpu2.data         727774617                       # Total read bandwidth from this memory (bytes/s)
system.mem_ctrls.bw_read::cpu3.inst         449809333                       # Total read bandwidth from this memory (bytes/s)
system.mem_ctrls.bw_read::cpu3.data         722347963                       # Total read bandwidth from this memory (bytes/s)
system.mem_ctrls.bw_read::total            4769426035                       # Total read bandwidth from this memory (bytes/s)
system.mem_ctrls.bw_inst_read::cpu0.inst    452221179                       # Instruction read bandwidth from this memory (bytes/s)
system.mem_ctrls.bw_inst_read::cpu1.inst    452824141                       # Instruction read bandwidth from this memory (bytes/s)
system.mem_ctrls.bw_inst_read::cpu2.inst    454030064                       # Instruction read bandwidth from this memory (bytes/s)
system.mem_ctrls.bw_inst_read::cpu3.inst    449809333                       # Instruction read bandwidth from this memory (bytes/s)
system.mem_ctrls.bw_inst_read::total       1808884716                       # Instruction read bandwidth from this memory (bytes/s)
system.mem_ctrls.bw_total::cpu0.inst        452221179                       # Total bandwidth to/from this memory (bytes/s)
system.mem_ctrls.bw_total::cpu0.data        753099003                       # Total bandwidth to/from this memory (bytes/s)
system.mem_ctrls.bw_total::cpu1.inst        452824141                       # Total bandwidth to/from this memory (bytes/s)
system.mem_ctrls.bw_total::cpu1.data        757319734                       # Total bandwidth to/from this memory (bytes/s)
system.mem_ctrls.bw_total::cpu2.inst        454030064                       # Total bandwidth to/from this memory (bytes/s)
system.mem_ctrls.bw_total::cpu2.data        727774617                       # Total bandwidth to/from this memory (bytes/s)
system.mem_ctrls.bw_total::cpu3.inst        449809333                       # Total bandwidth to/from this memory (bytes/s)
system.mem_ctrls.bw_total::cpu3.data        722347963                       # Total bandwidth to/from this memory (bytes/s)
system.mem_ctrls.bw_total::total           4769426035                       # Total bandwidth to/from this memory (bytes/s)
system.pwrStateResidencyTicks::UNDEFINED    106142751                       # Cumulative time (in ticks) in various power states
system.cpu0.branchPred.lookups                  17371                       # Number of BP lookups
system.cpu0.branchPred.condPredicted            17371                       # Number of conditional branches predicted
system.cpu0.branchPred.condIncorrect             2166                       # Number of conditional branches incorrect
system.cpu0.branchPred.BTBLookups               15917                       # Number of BTB lookups
system.cpu0.branchPred.BTBHits                      0                       # Number of BTB hits
system.cpu0.branchPred.BTBCorrect                   0                       # Number of correct BTB predictions (this stat may not work properly.
system.cpu0.branchPred.BTBHitPct             0.000000                       # BTB Hit Percentage
system.cpu0.branchPred.usedRAS                   1092                       # Number of times the RAS was used to get a target.
system.cpu0.branchPred.RASInCorrect               289                       # Number of incorrect RAS predictions.
system.cpu0.branchPred.indirectLookups          15917                       # Number of indirect predictor lookups.
system.cpu0.branchPred.indirectHits              4117                       # Number of indirect target hits.
system.cpu0.branchPred.indirectMisses           11800                       # Number of indirect misses.
system.cpu0.branchPredindirectMispredicted         1685                       # Number of mispredicted indirect branches.
system.cpu_voltage_domain.voltage                   1                       # Voltage in Volts
system.cpu_clk_domain.clock                       333                       # Clock period in ticks
system.cpu0.dtb.walker.pwrStateResidencyTicks::UNDEFINED    106142751                       # Cumulative time (in ticks) in various power states
system.cpu0.dtb.rdAccesses                      10515                       # TLB accesses on read requests
system.cpu0.dtb.wrAccesses                      14920                       # TLB accesses on write requests
system.cpu0.dtb.rdMisses                          233                       # TLB misses on read requests
system.cpu0.dtb.wrMisses                           67                       # TLB misses on write requests
system.cpu0.apic_clk_domain.clock                5328                       # Clock period in ticks
system.cpu0.interrupts.pwrStateResidencyTicks::UNDEFINED    106142751                       # Cumulative time (in ticks) in various power states
system.cpu0.itb.walker.pwrStateResidencyTicks::UNDEFINED    106142751                       # Cumulative time (in ticks) in various power states
system.cpu0.itb.rdAccesses                          0                       # TLB accesses on read requests
system.cpu0.itb.wrAccesses                      12496                       # TLB accesses on write requests
system.cpu0.itb.rdMisses                            0                       # TLB misses on read requests
system.cpu0.itb.wrMisses                          160                       # TLB misses on write requests
system.cpu0.workload.numSyscalls                   25                       # Number of system calls
system.cpu0.pwrStateResidencyTicks::ON      106142751                       # Cumulative time (in ticks) in various power states
system.cpu0.numCycles                          318748                       # number of cpu cycles simulated
system.cpu0.numWorkItemsStarted                     0                       # number of work items this cpu started
system.cpu0.numWorkItemsCompleted                   0                       # number of work items this cpu completed
system.cpu0.fetch.icacheStallCycles             34023                       # Number of cycles fetch is stalled on an Icache miss
system.cpu0.fetch.Insts                         79827                       # Number of instructions fetch has processed
system.cpu0.fetch.Branches                      17371                       # Number of branches that fetch encountered
system.cpu0.fetch.predictedBranches              5209                       # Number of branches that fetch has predicted taken
system.cpu0.fetch.Cycles                       216530                       # Number of cycles fetch has run and was not squashing or blocked
system.cpu0.fetch.SquashCycles                   4504                       # Number of cycles fetch has spent squashing
system.cpu0.fetch.MiscStallCycles                  75                       # Number of cycles fetch has spent waiting on interrupts, or bad addresses, or out of MSHRs
system.cpu0.fetch.PendingTrapStallCycles          464                       # Number of stall cycles due to pending traps
system.cpu0.fetch.PendingQuiesceStallCycles            6                       # Number of stall cycles due to pending quiesce instructions
system.cpu0.fetch.IcacheWaitRetryStallCycles          256                       # Number of stall cycles due to full MSHR
system.cpu0.fetch.CacheLines                    12399                       # Number of cache lines fetched
system.cpu0.fetch.IcacheSquashes                  916                       # Number of outstanding Icache misses that were squashed
system.cpu0.fetch.rateDist::samples            253606                       # Number of instructions fetched each cycle (Total)
system.cpu0.fetch.rateDist::mean             0.618676                       # Number of instructions fetched each cycle (Total)
system.cpu0.fetch.rateDist::stdev            2.017449                       # Number of instructions fetched each cycle (Total)
system.cpu0.fetch.rateDist::underflows              0      0.00%      0.00% # Number of instructions fetched each cycle (Total)
system.cpu0.fetch.rateDist::0                  228873     90.25%     90.25% # Number of instructions fetched each cycle (Total)
system.cpu0.fetch.rateDist::1                    1372      0.54%     90.79% # Number of instructions fetched each cycle (Total)
system.cpu0.fetch.rateDist::2                    1489      0.59%     91.38% # Number of instructions fetched each cycle (Total)
system.cpu0.fetch.rateDist::3                    1352      0.53%     91.91% # Number of instructions fetched each cycle (Total)
system.cpu0.fetch.rateDist::4                    1712      0.68%     92.58% # Number of instructions fetched each cycle (Total)
system.cpu0.fetch.rateDist::5                    1070      0.42%     93.01% # Number of instructions fetched each cycle (Total)
system.cpu0.fetch.rateDist::6                    2259      0.89%     93.90% # Number of instructions fetched each cycle (Total)
system.cpu0.fetch.rateDist::7                    1090      0.43%     94.33% # Number of instructions fetched each cycle (Total)
system.cpu0.fetch.rateDist::8                   14389      5.67%    100.00% # Number of instructions fetched each cycle (Total)
system.cpu0.fetch.rateDist::overflows               0      0.00%    100.00% # Number of instructions fetched each cycle (Total)
system.cpu0.fetch.rateDist::min_value               0                       # Number of instructions fetched each cycle (Total)
system.cpu0.fetch.rateDist::max_value               8                       # Number of instructions fetched each cycle (Total)
system.cpu0.fetch.rateDist::total              253606                       # Number of instructions fetched each cycle (Total)
system.cpu0.fetch.branchRate                 0.054498                       # Number of branch fetches per cycle
system.cpu0.fetch.rate                       0.250439                       # Number of inst fetches per cycle
system.cpu0.decode.IdleCycles                   29088                       # Number of cycles decode is idle
system.cpu0.decode.BlockedCycles               201304                       # Number of cycles decode is blocked
system.cpu0.decode.RunCycles                    17637                       # Number of cycles decode is running
system.cpu0.decode.UnblockCycles                 3325                       # Number of cycles decode is unblocking
system.cpu0.decode.SquashCycles                  2252                       # Number of cycles decode is squashing
system.cpu0.decode.DecodedInsts                145319                       # Number of instructions handled by decode
system.cpu0.rename.SquashCycles                  2252                       # Number of cycles rename is squashing
system.cpu0.rename.IdleCycles                   30852                       # Number of cycles rename is idle
system.cpu0.rename.BlockCycles                  91986                       # Number of cycles rename is blocking
system.cpu0.rename.serializeStallCycles          3422                       # count of cycles rename stalled for serializing inst
system.cpu0.rename.RunCycles                    19029                       # Number of cycles rename is running
system.cpu0.rename.UnblockCycles               106065                       # Number of cycles rename is unblocking
system.cpu0.rename.RenamedInsts                137305                       # Number of instructions processed by rename
system.cpu0.rename.ROBFullEvents                   63                       # Number of times rename has blocked due to ROB full
system.cpu0.rename.IQFullEvents                   283                       # Number of times rename has blocked due to IQ full
system.cpu0.rename.LQFullEvents                   205                       # Number of times rename has blocked due to LQ full
system.cpu0.rename.SQFullEvents                105379                       # Number of times rename has blocked due to SQ full
system.cpu0.rename.RenamedOperands             142521                       # Number of destination operands rename has renamed
system.cpu0.rename.RenameLookups               349893                       # Number of register rename lookups that rename has made
system.cpu0.rename.int_rename_lookups          202873                       # Number of integer rename lookups
system.cpu0.rename.fp_rename_lookups            10490                       # Number of floating rename lookups
system.cpu0.rename.CommittedMaps                70293                       # Number of HB maps that are committed
system.cpu0.rename.UndoneMaps                   72228                       # Number of HB maps that are undone due to squashing
system.cpu0.rename.serializingInsts                79                       # count of serializing insts renamed
system.cpu0.rename.tempSerializingInsts            75                       # count of temporary serializing insts renamed
system.cpu0.rename.skidInsts                    15089                       # count of insts added to the skid buffer
system.cpu0.memDep0.insertedLoads               13382                       # Number of loads inserted to the mem dependence unit.
system.cpu0.memDep0.insertedStores              17447                       # Number of stores inserted to the mem dependence unit.
system.cpu0.memDep0.conflictingLoads              536                       # Number of conflicting loads.
system.cpu0.memDep0.conflictingStores             463                       # Number of conflicting stores.
system.cpu0.iq.iqInstsAdded                    121354                       # Number of instructions added to the IQ (excludes non-spec)
system.cpu0.iq.iqNonSpecInstsAdded                384                       # Number of non-speculative instructions added to the IQ
system.cpu0.iq.iqInstsIssued                   105456                       # Number of instructions issued
system.cpu0.iq.iqSquashedInstsIssued              701                       # Number of squashed instructions issued
system.cpu0.iq.iqSquashedInstsExamined          51919                       # Number of squashed instructions iterated over during squash; mainly for profiling
system.cpu0.iq.iqSquashedOperandsExamined        70431                       # Number of squashed operands that are examined and possibly removed from graph
system.cpu0.iq.iqSquashedNonSpecRemoved           347                       # Number of squashed non-spec instructions that were removed
system.cpu0.iq.issued_per_cycle::samples       253606                       # Number of insts issued each cycle
system.cpu0.iq.issued_per_cycle::mean        0.415826                       # Number of insts issued each cycle
system.cpu0.iq.issued_per_cycle::stdev       1.334568                       # Number of insts issued each cycle
system.cpu0.iq.issued_per_cycle::underflows            0      0.00%      0.00% # Number of insts issued each cycle
system.cpu0.iq.issued_per_cycle::0             219775     86.66%     86.66% # Number of insts issued each cycle
system.cpu0.iq.issued_per_cycle::1              13170      5.19%     91.85% # Number of insts issued each cycle
system.cpu0.iq.issued_per_cycle::2               4040      1.59%     93.45% # Number of insts issued each cycle
system.cpu0.iq.issued_per_cycle::3               3181      1.25%     94.70% # Number of insts issued each cycle
system.cpu0.iq.issued_per_cycle::4               3692      1.46%     96.16% # Number of insts issued each cycle
system.cpu0.iq.issued_per_cycle::5               3345      1.32%     97.48% # Number of insts issued each cycle
system.cpu0.iq.issued_per_cycle::6               2951      1.16%     98.64% # Number of insts issued each cycle
system.cpu0.iq.issued_per_cycle::7               2152      0.85%     99.49% # Number of insts issued each cycle
system.cpu0.iq.issued_per_cycle::8               1300      0.51%    100.00% # Number of insts issued each cycle
system.cpu0.iq.issued_per_cycle::overflows            0      0.00%    100.00% # Number of insts issued each cycle
system.cpu0.iq.issued_per_cycle::min_value            0                       # Number of insts issued each cycle
system.cpu0.iq.issued_per_cycle::max_value            8                       # Number of insts issued each cycle
system.cpu0.iq.issued_per_cycle::total         253606                       # Number of insts issued each cycle
system.cpu0.iq.fu_full::No_OpClass                  0      0.00%      0.00% # attempts to use FU when none available
system.cpu0.iq.fu_full::IntAlu                   1306     83.03%     83.03% # attempts to use FU when none available
system.cpu0.iq.fu_full::IntMult                     0      0.00%     83.03% # attempts to use FU when none available
system.cpu0.iq.fu_full::IntDiv                      0      0.00%     83.03% # attempts to use FU when none available
system.cpu0.iq.fu_full::FloatAdd                   14      0.89%     83.92% # attempts to use FU when none available
system.cpu0.iq.fu_full::FloatCmp                    0      0.00%     83.92% # attempts to use FU when none available
system.cpu0.iq.fu_full::FloatCvt                    0      0.00%     83.92% # attempts to use FU when none available
system.cpu0.iq.fu_full::FloatMult                   0      0.00%     83.92% # attempts to use FU when none available
system.cpu0.iq.fu_full::FloatMultAcc                0      0.00%     83.92% # attempts to use FU when none available
system.cpu0.iq.fu_full::FloatDiv                    0      0.00%     83.92% # attempts to use FU when none available
system.cpu0.iq.fu_full::FloatMisc                   0      0.00%     83.92% # attempts to use FU when none available
system.cpu0.iq.fu_full::FloatSqrt                   0      0.00%     83.92% # attempts to use FU when none available
system.cpu0.iq.fu_full::SimdAdd                     0      0.00%     83.92% # attempts to use FU when none available
system.cpu0.iq.fu_full::SimdAddAcc                  0      0.00%     83.92% # attempts to use FU when none available
system.cpu0.iq.fu_full::SimdAlu                     0      0.00%     83.92% # attempts to use FU when none available
system.cpu0.iq.fu_full::SimdCmp                     0      0.00%     83.92% # attempts to use FU when none available
system.cpu0.iq.fu_full::SimdCvt                     0      0.00%     83.92% # attempts to use FU when none available
system.cpu0.iq.fu_full::SimdMisc                    0      0.00%     83.92% # attempts to use FU when none available
system.cpu0.iq.fu_full::SimdMult                    0      0.00%     83.92% # attempts to use FU when none available
system.cpu0.iq.fu_full::SimdMultAcc                 0      0.00%     83.92% # attempts to use FU when none available
system.cpu0.iq.fu_full::SimdShift                   0      0.00%     83.92% # attempts to use FU when none available
system.cpu0.iq.fu_full::SimdShiftAcc                0      0.00%     83.92% # attempts to use FU when none available
system.cpu0.iq.fu_full::SimdSqrt                    0      0.00%     83.92% # attempts to use FU when none available
system.cpu0.iq.fu_full::SimdFloatAdd                0      0.00%     83.92% # attempts to use FU when none available
system.cpu0.iq.fu_full::SimdFloatAlu                0      0.00%     83.92% # attempts to use FU when none available
system.cpu0.iq.fu_full::SimdFloatCmp                0      0.00%     83.92% # attempts to use FU when none available
system.cpu0.iq.fu_full::SimdFloatCvt                0      0.00%     83.92% # attempts to use FU when none available
system.cpu0.iq.fu_full::SimdFloatDiv                0      0.00%     83.92% # attempts to use FU when none available
system.cpu0.iq.fu_full::SimdFloatMisc               0      0.00%     83.92% # attempts to use FU when none available
system.cpu0.iq.fu_full::SimdFloatMult               0      0.00%     83.92% # attempts to use FU when none available
system.cpu0.iq.fu_full::SimdFloatMultAcc            0      0.00%     83.92% # attempts to use FU when none available
system.cpu0.iq.fu_full::SimdFloatSqrt               0      0.00%     83.92% # attempts to use FU when none available
system.cpu0.iq.fu_full::MemRead                    65      4.13%     88.05% # attempts to use FU when none available
system.cpu0.iq.fu_full::MemWrite                   75      4.77%     92.82% # attempts to use FU when none available
system.cpu0.iq.fu_full::FloatMemRead                6      0.38%     93.20% # attempts to use FU when none available
system.cpu0.iq.fu_full::FloatMemWrite             107      6.80%    100.00% # attempts to use FU when none available
system.cpu0.iq.fu_full::IprAccess                   0      0.00%    100.00% # attempts to use FU when none available
system.cpu0.iq.fu_full::InstPrefetch                0      0.00%    100.00% # attempts to use FU when none available
system.cpu0.iq.FU_type_0::No_OpClass              997      0.95%      0.95% # Type of FU issued
system.cpu0.iq.FU_type_0::IntAlu                76442     72.49%     73.43% # Type of FU issued
system.cpu0.iq.FU_type_0::IntMult                  60      0.06%     73.49% # Type of FU issued
system.cpu0.iq.FU_type_0::IntDiv                   96      0.09%     73.58% # Type of FU issued
system.cpu0.iq.FU_type_0::FloatAdd                957      0.91%     74.49% # Type of FU issued
system.cpu0.iq.FU_type_0::FloatCmp                  0      0.00%     74.49% # Type of FU issued
system.cpu0.iq.FU_type_0::FloatCvt                  0      0.00%     74.49% # Type of FU issued
system.cpu0.iq.FU_type_0::FloatMult                 0      0.00%     74.49% # Type of FU issued
system.cpu0.iq.FU_type_0::FloatMultAcc              0      0.00%     74.49% # Type of FU issued
system.cpu0.iq.FU_type_0::FloatDiv                  0      0.00%     74.49% # Type of FU issued
system.cpu0.iq.FU_type_0::FloatMisc                 0      0.00%     74.49% # Type of FU issued
system.cpu0.iq.FU_type_0::FloatSqrt                 0      0.00%     74.49% # Type of FU issued
system.cpu0.iq.FU_type_0::SimdAdd                   0      0.00%     74.49% # Type of FU issued
system.cpu0.iq.FU_type_0::SimdAddAcc                0      0.00%     74.49% # Type of FU issued
system.cpu0.iq.FU_type_0::SimdAlu                   0      0.00%     74.49% # Type of FU issued
system.cpu0.iq.FU_type_0::SimdCmp                   0      0.00%     74.49% # Type of FU issued
system.cpu0.iq.FU_type_0::SimdCvt                   0      0.00%     74.49% # Type of FU issued
system.cpu0.iq.FU_type_0::SimdMisc                  0      0.00%     74.49% # Type of FU issued
system.cpu0.iq.FU_type_0::SimdMult                  0      0.00%     74.49% # Type of FU issued
system.cpu0.iq.FU_type_0::SimdMultAcc               0      0.00%     74.49% # Type of FU issued
system.cpu0.iq.FU_type_0::SimdShift                 0      0.00%     74.49% # Type of FU issued
system.cpu0.iq.FU_type_0::SimdShiftAcc              0      0.00%     74.49% # Type of FU issued
system.cpu0.iq.FU_type_0::SimdSqrt                  0      0.00%     74.49% # Type of FU issued
system.cpu0.iq.FU_type_0::SimdFloatAdd              0      0.00%     74.49% # Type of FU issued
system.cpu0.iq.FU_type_0::SimdFloatAlu              0      0.00%     74.49% # Type of FU issued
system.cpu0.iq.FU_type_0::SimdFloatCmp              0      0.00%     74.49% # Type of FU issued
system.cpu0.iq.FU_type_0::SimdFloatCvt              0      0.00%     74.49% # Type of FU issued
system.cpu0.iq.FU_type_0::SimdFloatDiv              0      0.00%     74.49% # Type of FU issued
system.cpu0.iq.FU_type_0::SimdFloatMisc             0      0.00%     74.49% # Type of FU issued
system.cpu0.iq.FU_type_0::SimdFloatMult             0      0.00%     74.49% # Type of FU issued
system.cpu0.iq.FU_type_0::SimdFloatMultAcc            0      0.00%     74.49% # Type of FU issued
system.cpu0.iq.FU_type_0::SimdFloatSqrt             0      0.00%     74.49% # Type of FU issued
system.cpu0.iq.FU_type_0::MemRead               11206     10.63%     85.11% # Type of FU issued
system.cpu0.iq.FU_type_0::MemWrite               7323      6.94%     92.06% # Type of FU issued
system.cpu0.iq.FU_type_0::FloatMemRead            172      0.16%     92.22% # Type of FU issued
system.cpu0.iq.FU_type_0::FloatMemWrite          8203      7.78%    100.00% # Type of FU issued
system.cpu0.iq.FU_type_0::IprAccess                 0      0.00%    100.00% # Type of FU issued
system.cpu0.iq.FU_type_0::InstPrefetch              0      0.00%    100.00% # Type of FU issued
system.cpu0.iq.FU_type_0::total                105456                       # Type of FU issued
system.cpu0.iq.rate                          0.330844                       # Inst issue rate
system.cpu0.iq.fu_busy_cnt                       1573                       # FU busy when requested
system.cpu0.iq.fu_busy_rate                  0.014916                       # FU busy rate (busy events/executed inst)
system.cpu0.iq.int_inst_queue_reads            447709                       # Number of integer instruction queue reads
system.cpu0.iq.int_inst_queue_writes           163733                       # Number of integer instruction queue writes
system.cpu0.iq.int_inst_queue_wakeup_accesses        89180                       # Number of integer instruction queue wakeup accesses
system.cpu0.iq.fp_inst_queue_reads              19083                       # Number of floating instruction queue reads
system.cpu0.iq.fp_inst_queue_writes              9967                       # Number of floating instruction queue writes
system.cpu0.iq.fp_inst_queue_wakeup_accesses         9351                       # Number of floating instruction queue wakeup accesses
system.cpu0.iq.vec_inst_queue_reads                 0                       # Number of vector instruction queue reads
system.cpu0.iq.vec_inst_queue_writes                0                       # Number of vector instruction queue writes
system.cpu0.iq.vec_inst_queue_wakeup_accesses            0                       # Number of vector instruction queue wakeup accesses
system.cpu0.iq.int_alu_accesses                 96463                       # Number of integer alu accesses
system.cpu0.iq.fp_alu_accesses                   9569                       # Number of floating point alu accesses
system.cpu0.iq.vec_alu_accesses                     0                       # Number of vector alu accesses
system.cpu0.iew.lsq.thread0.forwLoads             801                       # Number of loads that had data forwarded from stores
system.cpu0.iew.lsq.thread0.invAddrLoads            0                       # Number of loads ignored due to an invalid address
system.cpu0.iew.lsq.thread0.squashedLoads         6614                       # Number of loads squashed
system.cpu0.iew.lsq.thread0.ignoredResponses           19                       # Number of memory responses ignored because the instruction is squashed
system.cpu0.iew.lsq.thread0.memOrderViolation           46                       # Number of memory ordering violations
system.cpu0.iew.lsq.thread0.squashedStores         4651                       # Number of stores squashed
system.cpu0.iew.lsq.thread0.invAddrSwpfs            0                       # Number of software prefetches ignored due to an invalid address
system.cpu0.iew.lsq.thread0.blockedLoads            0                       # Number of blocked loads due to partial load-store forwarding
system.cpu0.iew.lsq.thread0.rescheduledLoads           28                       # Number of loads that were rescheduled
system.cpu0.iew.lsq.thread0.cacheBlocked           15                       # Number of times an access to memory failed due to the cache being blocked
system.cpu0.iew.iewIdleCycles                       0                       # Number of cycles IEW is idle
system.cpu0.iew.iewSquashCycles                  2252                       # Number of cycles IEW is squashing
system.cpu0.iew.iewBlockCycles                   7701                       # Number of cycles IEW is blocking
system.cpu0.iew.iewUnblockCycles                82244                       # Number of cycles IEW is unblocking
system.cpu0.iew.iewDispatchedInsts             121738                       # Number of instructions dispatched to IQ
system.cpu0.iew.iewDispSquashedInsts               86                       # Number of squashed instructions skipped by dispatch
system.cpu0.iew.iewDispLoadInsts                13382                       # Number of dispatched load instructions
system.cpu0.iew.iewDispStoreInsts               17447                       # Number of dispatched store instructions
system.cpu0.iew.iewDispNonSpecInsts               171                       # Number of dispatched non-speculative instructions
system.cpu0.iew.iewIQFullEvents                    19                       # Number of times the IQ has become full, causing a stall
system.cpu0.iew.iewLSQFullEvents                82214                       # Number of times the LSQ has become full, causing a stall
system.cpu0.iew.memOrderViolationEvents            46                       # Number of memory order violations
system.cpu0.iew.predictedTakenIncorrect           449                       # Number of branches that were predicted taken incorrectly
system.cpu0.iew.predictedNotTakenIncorrect         2460                       # Number of branches that were predicted not taken incorrectly
system.cpu0.iew.branchMispredicts                2909                       # Number of branch mispredicts detected at execute
system.cpu0.iew.iewExecutedInsts               100505                       # Number of executed instructions
system.cpu0.iew.iewExecLoadInsts                10470                       # Number of load instructions executed
system.cpu0.iew.iewExecSquashedInsts             4951                       # Number of squashed instructions skipped in execute
system.cpu0.iew.exec_swp                            0                       # number of swp insts executed
system.cpu0.iew.exec_nop                            0                       # number of nop insts executed
system.cpu0.iew.exec_refs                       25387                       # number of memory reference insts executed
system.cpu0.iew.exec_branches                    9781                       # Number of branches executed
system.cpu0.iew.exec_stores                     14917                       # Number of stores executed
system.cpu0.iew.exec_rate                    0.315312                       # Inst execution rate
system.cpu0.iew.wb_sent                         99429                       # cumulative count of insts sent to commit
system.cpu0.iew.wb_count                        98531                       # cumulative count of insts written-back
system.cpu0.iew.wb_producers                    63306                       # num instructions producing a value
system.cpu0.iew.wb_consumers                    96885                       # num instructions consuming a value
system.cpu0.iew.wb_rate                      0.309119                       # insts written-back per cycle
system.cpu0.iew.wb_fanout                    0.653414                       # average fanout of values written-back
system.cpu0.commit.commitSquashedInsts          51921                       # The number of squashed insts skipped by commit
system.cpu0.commit.commitNonSpecStalls             37                       # The number of times commit has been forced to stall to communicate backwards
system.cpu0.commit.branchMispredicts             2221                       # The number of times a branch was mispredicted
system.cpu0.commit.committed_per_cycle::samples       245269                       # Number of insts commited each cycle
system.cpu0.commit.committed_per_cycle::mean     0.284663                       # Number of insts commited each cycle
system.cpu0.commit.committed_per_cycle::stdev     1.117062                       # Number of insts commited each cycle
system.cpu0.commit.committed_per_cycle::underflows            0      0.00%      0.00% # Number of insts commited each cycle
system.cpu0.commit.committed_per_cycle::0       219063     89.32%     89.32% # Number of insts commited each cycle
system.cpu0.commit.committed_per_cycle::1        13066      5.33%     94.64% # Number of insts commited each cycle
system.cpu0.commit.committed_per_cycle::2         3190      1.30%     95.94% # Number of insts commited each cycle
system.cpu0.commit.committed_per_cycle::3         3934      1.60%     97.55% # Number of insts commited each cycle
system.cpu0.commit.committed_per_cycle::4         1463      0.60%     98.14% # Number of insts commited each cycle
system.cpu0.commit.committed_per_cycle::5          722      0.29%     98.44% # Number of insts commited each cycle
system.cpu0.commit.committed_per_cycle::6          569      0.23%     98.67% # Number of insts commited each cycle
system.cpu0.commit.committed_per_cycle::7          401      0.16%     98.83% # Number of insts commited each cycle
system.cpu0.commit.committed_per_cycle::8         2861      1.17%    100.00% # Number of insts commited each cycle
system.cpu0.commit.committed_per_cycle::overflows            0      0.00%    100.00% # Number of insts commited each cycle
system.cpu0.commit.committed_per_cycle::min_value            0                       # Number of insts commited each cycle
system.cpu0.commit.committed_per_cycle::max_value            8                       # Number of insts commited each cycle
system.cpu0.commit.committed_per_cycle::total       245269                       # Number of insts commited each cycle
system.cpu0.commit.committedInsts               35045                       # Number of instructions committed
system.cpu0.commit.committedOps                 69819                       # Number of ops (including micro ops) committed
system.cpu0.commit.swp_count                        0                       # Number of s/w prefetches committed
system.cpu0.commit.refs                         19564                       # Number of memory references committed
system.cpu0.commit.loads                         6768                       # Number of loads committed
system.cpu0.commit.membars                          8                       # Number of memory barriers committed
system.cpu0.commit.branches                      7495                       # Number of branches committed
system.cpu0.commit.vec_insts                        0                       # Number of committed Vector instructions.
system.cpu0.commit.fp_insts                      9153                       # Number of committed floating point instructions.
system.cpu0.commit.int_insts                    68708                       # Number of committed integer instructions.
system.cpu0.commit.function_calls                 441                       # Number of function calls committed.
system.cpu0.commit.op_class_0::No_OpClass          240      0.34%      0.34% # Class of committed instruction
system.cpu0.commit.op_class_0::IntAlu           48948     70.11%     70.45% # Class of committed instruction
system.cpu0.commit.op_class_0::IntMult             50      0.07%     70.52% # Class of committed instruction
system.cpu0.commit.op_class_0::IntDiv              77      0.11%     70.63% # Class of committed instruction
system.cpu0.commit.op_class_0::FloatAdd           940      1.35%     71.98% # Class of committed instruction
system.cpu0.commit.op_class_0::FloatCmp             0      0.00%     71.98% # Class of committed instruction
system.cpu0.commit.op_class_0::FloatCvt             0      0.00%     71.98% # Class of committed instruction
system.cpu0.commit.op_class_0::FloatMult            0      0.00%     71.98% # Class of committed instruction
system.cpu0.commit.op_class_0::FloatMultAcc            0      0.00%     71.98% # Class of committed instruction
system.cpu0.commit.op_class_0::FloatDiv             0      0.00%     71.98% # Class of committed instruction
system.cpu0.commit.op_class_0::FloatMisc            0      0.00%     71.98% # Class of committed instruction
system.cpu0.commit.op_class_0::FloatSqrt            0      0.00%     71.98% # Class of committed instruction
system.cpu0.commit.op_class_0::SimdAdd              0      0.00%     71.98% # Class of committed instruction
system.cpu0.commit.op_class_0::SimdAddAcc            0      0.00%     71.98% # Class of committed instruction
system.cpu0.commit.op_class_0::SimdAlu              0      0.00%     71.98% # Class of committed instruction
system.cpu0.commit.op_class_0::SimdCmp              0      0.00%     71.98% # Class of committed instruction
system.cpu0.commit.op_class_0::SimdCvt              0      0.00%     71.98% # Class of committed instruction
system.cpu0.commit.op_class_0::SimdMisc             0      0.00%     71.98% # Class of committed instruction
system.cpu0.commit.op_class_0::SimdMult             0      0.00%     71.98% # Class of committed instruction
system.cpu0.commit.op_class_0::SimdMultAcc            0      0.00%     71.98% # Class of committed instruction
system.cpu0.commit.op_class_0::SimdShift            0      0.00%     71.98% # Class of committed instruction
system.cpu0.commit.op_class_0::SimdShiftAcc            0      0.00%     71.98% # Class of committed instruction
system.cpu0.commit.op_class_0::SimdSqrt             0      0.00%     71.98% # Class of committed instruction
system.cpu0.commit.op_class_0::SimdFloatAdd            0      0.00%     71.98% # Class of committed instruction
system.cpu0.commit.op_class_0::SimdFloatAlu            0      0.00%     71.98% # Class of committed instruction
system.cpu0.commit.op_class_0::SimdFloatCmp            0      0.00%     71.98% # Class of committed instruction
system.cpu0.commit.op_class_0::SimdFloatCvt            0      0.00%     71.98% # Class of committed instruction
system.cpu0.commit.op_class_0::SimdFloatDiv            0      0.00%     71.98% # Class of committed instruction
system.cpu0.commit.op_class_0::SimdFloatMisc            0      0.00%     71.98% # Class of committed instruction
system.cpu0.commit.op_class_0::SimdFloatMult            0      0.00%     71.98% # Class of committed instruction
system.cpu0.commit.op_class_0::SimdFloatMultAcc            0      0.00%     71.98% # Class of committed instruction
system.cpu0.commit.op_class_0::SimdFloatSqrt            0      0.00%     71.98% # Class of committed instruction
system.cpu0.commit.op_class_0::MemRead           6615      9.47%     81.45% # Class of committed instruction
system.cpu0.commit.op_class_0::MemWrite          4843      6.94%     88.39% # Class of committed instruction
system.cpu0.commit.op_class_0::FloatMemRead          153      0.22%     88.61% # Class of committed instruction
system.cpu0.commit.op_class_0::FloatMemWrite         7953     11.39%    100.00% # Class of committed instruction
system.cpu0.commit.op_class_0::IprAccess            0      0.00%    100.00% # Class of committed instruction
system.cpu0.commit.op_class_0::InstPrefetch            0      0.00%    100.00% # Class of committed instruction
system.cpu0.commit.op_class_0::total            69819                       # Class of committed instruction
system.cpu0.commit.bw_lim_events                 2861                       # number cycles where commit BW limit reached
system.cpu0.rob.rob_reads                      364148                       # The number of ROB reads
system.cpu0.rob.rob_writes                     251990                       # The number of ROB writes
system.cpu0.timesIdled                            425                       # Number of times that the entire CPU went into an idle state and unscheduled itself
system.cpu0.idleCycles                          65142                       # Total number of cycles that the CPU has spent unscheduled due to idling
system.cpu0.committedInsts                      35045                       # Number of Instructions Simulated
system.cpu0.committedOps                        69819                       # Number of Ops (including micro ops) Simulated
system.cpu0.cpi                              9.095392                       # CPI: Cycles Per Instruction
system.cpu0.cpi_total                        9.095392                       # CPI: Total CPI of All Threads
system.cpu0.ipc                              0.109946                       # IPC: Instructions Per Cycle
system.cpu0.ipc_total                        0.109946                       # IPC: Total IPC of All Threads
system.cpu0.int_regfile_reads                  140085                       # number of integer regfile reads
system.cpu0.int_regfile_writes                  72827                       # number of integer regfile writes
system.cpu0.fp_regfile_reads                    10229                       # number of floating regfile reads
system.cpu0.fp_regfile_writes                    1071                       # number of floating regfile writes
system.cpu0.cc_regfile_reads                    46076                       # number of cc regfile reads
system.cpu0.cc_regfile_writes                   27147                       # number of cc regfile writes
system.cpu0.misc_regfile_reads                  47712                       # number of misc regfile reads
system.cpu0.dcache.tags.pwrStateResidencyTicks::UNDEFINED    106142751                       # Cumulative time (in ticks) in various power states
system.cpu0.dcache.tags.replacements              739                       # number of replacements
system.cpu0.dcache.tags.tagsinuse          348.657197                       # Cycle average of tags in use
system.cpu0.dcache.tags.total_refs              20843                       # Total number of references to valid blocks.
system.cpu0.dcache.tags.sampled_refs             1251                       # Sample count of references to valid blocks.
system.cpu0.dcache.tags.avg_refs            16.661071                       # Average number of references to valid blocks.
system.cpu0.dcache.tags.warmup_cycle           150183                       # Cycle when the warmup percentage was hit.
system.cpu0.dcache.tags.occ_blocks::cpu0.data   348.657197                       # Average occupied blocks per requestor
system.cpu0.dcache.tags.occ_percent::cpu0.data     0.680971                       # Average percentage of cache occupancy
system.cpu0.dcache.tags.occ_percent::total     0.680971                       # Average percentage of cache occupancy
system.cpu0.dcache.tags.occ_task_id_blocks::1024          512                       # Occupied blocks per task id
system.cpu0.dcache.tags.age_task_id_blocks_1024::0          158                       # Occupied blocks per task id
system.cpu0.dcache.tags.age_task_id_blocks_1024::1          350                       # Occupied blocks per task id
system.cpu0.dcache.tags.age_task_id_blocks_1024::2            4                       # Occupied blocks per task id
system.cpu0.dcache.tags.occ_task_id_percent::1024            1                       # Percentage of cache occupancy per task id
system.cpu0.dcache.tags.tag_accesses           179067                       # Number of tag accesses
system.cpu0.dcache.tags.data_accesses          179067                       # Number of data accesses
system.cpu0.dcache.pwrStateResidencyTicks::UNDEFINED    106142751                       # Cumulative time (in ticks) in various power states
system.cpu0.dcache.ReadReq_hits::cpu0.data         9176                       # number of ReadReq hits
system.cpu0.dcache.ReadReq_hits::total           9176                       # number of ReadReq hits
system.cpu0.dcache.WriteReq_hits::cpu0.data        11667                       # number of WriteReq hits
system.cpu0.dcache.WriteReq_hits::total         11667                       # number of WriteReq hits
system.cpu0.dcache.demand_hits::cpu0.data        20843                       # number of demand (read+write) hits
system.cpu0.dcache.demand_hits::total           20843                       # number of demand (read+write) hits
system.cpu0.dcache.overall_hits::cpu0.data        20843                       # number of overall hits
system.cpu0.dcache.overall_hits::total          20843                       # number of overall hits
system.cpu0.dcache.ReadReq_misses::cpu0.data          286                       # number of ReadReq misses
system.cpu0.dcache.ReadReq_misses::total          286                       # number of ReadReq misses
system.cpu0.dcache.WriteReq_misses::cpu0.data         1098                       # number of WriteReq misses
system.cpu0.dcache.WriteReq_misses::total         1098                       # number of WriteReq misses
system.cpu0.dcache.demand_misses::cpu0.data         1384                       # number of demand (read+write) misses
system.cpu0.dcache.demand_misses::total          1384                       # number of demand (read+write) misses
system.cpu0.dcache.overall_misses::cpu0.data         1384                       # number of overall misses
system.cpu0.dcache.overall_misses::total         1384                       # number of overall misses
system.cpu0.dcache.ReadReq_miss_latency::cpu0.data     21140172                       # number of ReadReq miss cycles
system.cpu0.dcache.ReadReq_miss_latency::total     21140172                       # number of ReadReq miss cycles
system.cpu0.dcache.WriteReq_miss_latency::cpu0.data     64026576                       # number of WriteReq miss cycles
system.cpu0.dcache.WriteReq_miss_latency::total     64026576                       # number of WriteReq miss cycles
system.cpu0.dcache.demand_miss_latency::cpu0.data     85166748                       # number of demand (read+write) miss cycles
system.cpu0.dcache.demand_miss_latency::total     85166748                       # number of demand (read+write) miss cycles
system.cpu0.dcache.overall_miss_latency::cpu0.data     85166748                       # number of overall miss cycles
system.cpu0.dcache.overall_miss_latency::total     85166748                       # number of overall miss cycles
system.cpu0.dcache.ReadReq_accesses::cpu0.data         9462                       # number of ReadReq accesses(hits+misses)
system.cpu0.dcache.ReadReq_accesses::total         9462                       # number of ReadReq accesses(hits+misses)
system.cpu0.dcache.WriteReq_accesses::cpu0.data        12765                       # number of WriteReq accesses(hits+misses)
system.cpu0.dcache.WriteReq_accesses::total        12765                       # number of WriteReq accesses(hits+misses)
system.cpu0.dcache.demand_accesses::cpu0.data        22227                       # number of demand (read+write) accesses
system.cpu0.dcache.demand_accesses::total        22227                       # number of demand (read+write) accesses
system.cpu0.dcache.overall_accesses::cpu0.data        22227                       # number of overall (read+write) accesses
system.cpu0.dcache.overall_accesses::total        22227                       # number of overall (read+write) accesses
system.cpu0.dcache.ReadReq_miss_rate::cpu0.data     0.030226                       # miss rate for ReadReq accesses
system.cpu0.dcache.ReadReq_miss_rate::total     0.030226                       # miss rate for ReadReq accesses
system.cpu0.dcache.WriteReq_miss_rate::cpu0.data     0.086016                       # miss rate for WriteReq accesses
system.cpu0.dcache.WriteReq_miss_rate::total     0.086016                       # miss rate for WriteReq accesses
system.cpu0.dcache.demand_miss_rate::cpu0.data     0.062267                       # miss rate for demand accesses
system.cpu0.dcache.demand_miss_rate::total     0.062267                       # miss rate for demand accesses
system.cpu0.dcache.overall_miss_rate::cpu0.data     0.062267                       # miss rate for overall accesses
system.cpu0.dcache.overall_miss_rate::total     0.062267                       # miss rate for overall accesses
system.cpu0.dcache.ReadReq_avg_miss_latency::cpu0.data 73916.685315                       # average ReadReq miss latency
system.cpu0.dcache.ReadReq_avg_miss_latency::total 73916.685315                       # average ReadReq miss latency
system.cpu0.dcache.WriteReq_avg_miss_latency::cpu0.data        58312                       # average WriteReq miss latency
system.cpu0.dcache.WriteReq_avg_miss_latency::total        58312                       # average WriteReq miss latency
system.cpu0.dcache.demand_avg_miss_latency::cpu0.data 61536.667630                       # average overall miss latency
system.cpu0.dcache.demand_avg_miss_latency::total 61536.667630                       # average overall miss latency
system.cpu0.dcache.overall_avg_miss_latency::cpu0.data 61536.667630                       # average overall miss latency
system.cpu0.dcache.overall_avg_miss_latency::total 61536.667630                       # average overall miss latency
system.cpu0.dcache.blocked_cycles::no_mshrs          519                       # number of cycles access was blocked
system.cpu0.dcache.blocked_cycles::no_targets            0                       # number of cycles access was blocked
system.cpu0.dcache.blocked::no_mshrs                6                       # number of cycles access was blocked
system.cpu0.dcache.blocked::no_targets              0                       # number of cycles access was blocked
system.cpu0.dcache.avg_blocked_cycles::no_mshrs    86.500000                       # average number of cycles each access was blocked
system.cpu0.dcache.avg_blocked_cycles::no_targets          nan                       # average number of cycles each access was blocked
system.cpu0.dcache.writebacks::writebacks          625                       # number of writebacks
system.cpu0.dcache.writebacks::total              625                       # number of writebacks
system.cpu0.dcache.ReadReq_mshr_hits::cpu0.data          131                       # number of ReadReq MSHR hits
system.cpu0.dcache.ReadReq_mshr_hits::total          131                       # number of ReadReq MSHR hits
system.cpu0.dcache.WriteReq_mshr_hits::cpu0.data            1                       # number of WriteReq MSHR hits
system.cpu0.dcache.WriteReq_mshr_hits::total            1                       # number of WriteReq MSHR hits
system.cpu0.dcache.demand_mshr_hits::cpu0.data          132                       # number of demand (read+write) MSHR hits
system.cpu0.dcache.demand_mshr_hits::total          132                       # number of demand (read+write) MSHR hits
system.cpu0.dcache.overall_mshr_hits::cpu0.data          132                       # number of overall MSHR hits
system.cpu0.dcache.overall_mshr_hits::total          132                       # number of overall MSHR hits
system.cpu0.dcache.ReadReq_mshr_misses::cpu0.data          155                       # number of ReadReq MSHR misses
system.cpu0.dcache.ReadReq_mshr_misses::total          155                       # number of ReadReq MSHR misses
system.cpu0.dcache.WriteReq_mshr_misses::cpu0.data         1097                       # number of WriteReq MSHR misses
system.cpu0.dcache.WriteReq_mshr_misses::total         1097                       # number of WriteReq MSHR misses
system.cpu0.dcache.demand_mshr_misses::cpu0.data         1252                       # number of demand (read+write) MSHR misses
system.cpu0.dcache.demand_mshr_misses::total         1252                       # number of demand (read+write) MSHR misses
system.cpu0.dcache.overall_mshr_misses::cpu0.data         1252                       # number of overall MSHR misses
system.cpu0.dcache.overall_mshr_misses::total         1252                       # number of overall MSHR misses
system.cpu0.dcache.ReadReq_mshr_miss_latency::cpu0.data     12469851                       # number of ReadReq MSHR miss cycles
system.cpu0.dcache.ReadReq_mshr_miss_latency::total     12469851                       # number of ReadReq MSHR miss cycles
system.cpu0.dcache.WriteReq_mshr_miss_latency::cpu0.data     63220716                       # number of WriteReq MSHR miss cycles
system.cpu0.dcache.WriteReq_mshr_miss_latency::total     63220716                       # number of WriteReq MSHR miss cycles
system.cpu0.dcache.demand_mshr_miss_latency::cpu0.data     75690567                       # number of demand (read+write) MSHR miss cycles
system.cpu0.dcache.demand_mshr_miss_latency::total     75690567                       # number of demand (read+write) MSHR miss cycles
system.cpu0.dcache.overall_mshr_miss_latency::cpu0.data     75690567                       # number of overall MSHR miss cycles
system.cpu0.dcache.overall_mshr_miss_latency::total     75690567                       # number of overall MSHR miss cycles
system.cpu0.dcache.ReadReq_mshr_miss_rate::cpu0.data     0.016381                       # mshr miss rate for ReadReq accesses
system.cpu0.dcache.ReadReq_mshr_miss_rate::total     0.016381                       # mshr miss rate for ReadReq accesses
system.cpu0.dcache.WriteReq_mshr_miss_rate::cpu0.data     0.085938                       # mshr miss rate for WriteReq accesses
system.cpu0.dcache.WriteReq_mshr_miss_rate::total     0.085938                       # mshr miss rate for WriteReq accesses
system.cpu0.dcache.demand_mshr_miss_rate::cpu0.data     0.056328                       # mshr miss rate for demand accesses
system.cpu0.dcache.demand_mshr_miss_rate::total     0.056328                       # mshr miss rate for demand accesses
system.cpu0.dcache.overall_mshr_miss_rate::cpu0.data     0.056328                       # mshr miss rate for overall accesses
system.cpu0.dcache.overall_mshr_miss_rate::total     0.056328                       # mshr miss rate for overall accesses
system.cpu0.dcache.ReadReq_avg_mshr_miss_latency::cpu0.data 80450.651613                       # average ReadReq mshr miss latency
system.cpu0.dcache.ReadReq_avg_mshr_miss_latency::total 80450.651613                       # average ReadReq mshr miss latency
system.cpu0.dcache.WriteReq_avg_mshr_miss_latency::cpu0.data 57630.552416                       # average WriteReq mshr miss latency
system.cpu0.dcache.WriteReq_avg_mshr_miss_latency::total 57630.552416                       # average WriteReq mshr miss latency
system.cpu0.dcache.demand_avg_mshr_miss_latency::cpu0.data 60455.724441                       # average overall mshr miss latency
system.cpu0.dcache.demand_avg_mshr_miss_latency::total 60455.724441                       # average overall mshr miss latency
system.cpu0.dcache.overall_avg_mshr_miss_latency::cpu0.data 60455.724441                       # average overall mshr miss latency
system.cpu0.dcache.overall_avg_mshr_miss_latency::total 60455.724441                       # average overall mshr miss latency
system.cpu0.dtb_walker_cache.tags.pwrStateResidencyTicks::UNDEFINED    106142751                       # Cumulative time (in ticks) in various power states
system.cpu0.dtb_walker_cache.tags.replacements            0                       # number of replacements
system.cpu0.dtb_walker_cache.tags.tagsinuse            0                       # Cycle average of tags in use
system.cpu0.dtb_walker_cache.tags.total_refs            0                       # Total number of references to valid blocks.
system.cpu0.dtb_walker_cache.tags.sampled_refs            0                       # Sample count of references to valid blocks.
system.cpu0.dtb_walker_cache.tags.avg_refs          nan                       # Average number of references to valid blocks.
system.cpu0.dtb_walker_cache.tags.warmup_cycle            0                       # Cycle when the warmup percentage was hit.
system.cpu0.dtb_walker_cache.tags.tag_accesses            0                       # Number of tag accesses
system.cpu0.dtb_walker_cache.tags.data_accesses            0                       # Number of data accesses
system.cpu0.dtb_walker_cache.pwrStateResidencyTicks::UNDEFINED    106142751                       # Cumulative time (in ticks) in various power states
system.cpu0.dtb_walker_cache.blocked_cycles::no_mshrs            0                       # number of cycles access was blocked
system.cpu0.dtb_walker_cache.blocked_cycles::no_targets            0                       # number of cycles access was blocked
system.cpu0.dtb_walker_cache.blocked::no_mshrs            0                       # number of cycles access was blocked
system.cpu0.dtb_walker_cache.blocked::no_targets            0                       # number of cycles access was blocked
system.cpu0.dtb_walker_cache.avg_blocked_cycles::no_mshrs          nan                       # average number of cycles each access was blocked
system.cpu0.dtb_walker_cache.avg_blocked_cycles::no_targets          nan                       # average number of cycles each access was blocked
system.cpu0.icache.tags.pwrStateResidencyTicks::UNDEFINED    106142751                       # Cumulative time (in ticks) in various power states
system.cpu0.icache.tags.replacements              287                       # number of replacements
system.cpu0.icache.tags.tagsinuse          435.628603                       # Cycle average of tags in use
system.cpu0.icache.tags.total_refs              11405                       # Total number of references to valid blocks.
system.cpu0.icache.tags.sampled_refs              799                       # Sample count of references to valid blocks.
system.cpu0.icache.tags.avg_refs            14.274093                       # Average number of references to valid blocks.
system.cpu0.icache.tags.warmup_cycle            76257                       # Cycle when the warmup percentage was hit.
system.cpu0.icache.tags.occ_blocks::cpu0.inst   435.628603                       # Average occupied blocks per requestor
system.cpu0.icache.tags.occ_percent::cpu0.inst     0.850837                       # Average percentage of cache occupancy
system.cpu0.icache.tags.occ_percent::total     0.850837                       # Average percentage of cache occupancy
system.cpu0.icache.tags.occ_task_id_blocks::1024          512                       # Occupied blocks per task id
system.cpu0.icache.tags.age_task_id_blocks_1024::1          501                       # Occupied blocks per task id
system.cpu0.icache.tags.age_task_id_blocks_1024::2           11                       # Occupied blocks per task id
system.cpu0.icache.tags.occ_task_id_percent::1024            1                       # Percentage of cache occupancy per task id
system.cpu0.icache.tags.tag_accesses            99991                       # Number of tag accesses
system.cpu0.icache.tags.data_accesses           99991                       # Number of data accesses
system.cpu0.icache.pwrStateResidencyTicks::UNDEFINED    106142751                       # Cumulative time (in ticks) in various power states
system.cpu0.icache.ReadReq_hits::cpu0.inst        11405                       # number of ReadReq hits
system.cpu0.icache.ReadReq_hits::total          11405                       # number of ReadReq hits
system.cpu0.icache.demand_hits::cpu0.inst        11405                       # number of demand (read+write) hits
system.cpu0.icache.demand_hits::total           11405                       # number of demand (read+write) hits
system.cpu0.icache.overall_hits::cpu0.inst        11405                       # number of overall hits
system.cpu0.icache.overall_hits::total          11405                       # number of overall hits
system.cpu0.icache.ReadReq_misses::cpu0.inst          994                       # number of ReadReq misses
system.cpu0.icache.ReadReq_misses::total          994                       # number of ReadReq misses
system.cpu0.icache.demand_misses::cpu0.inst          994                       # number of demand (read+write) misses
system.cpu0.icache.demand_misses::total           994                       # number of demand (read+write) misses
system.cpu0.icache.overall_misses::cpu0.inst          994                       # number of overall misses
system.cpu0.icache.overall_misses::total          994                       # number of overall misses
system.cpu0.icache.ReadReq_miss_latency::cpu0.inst     60672597                       # number of ReadReq miss cycles
system.cpu0.icache.ReadReq_miss_latency::total     60672597                       # number of ReadReq miss cycles
system.cpu0.icache.demand_miss_latency::cpu0.inst     60672597                       # number of demand (read+write) miss cycles
system.cpu0.icache.demand_miss_latency::total     60672597                       # number of demand (read+write) miss cycles
system.cpu0.icache.overall_miss_latency::cpu0.inst     60672597                       # number of overall miss cycles
system.cpu0.icache.overall_miss_latency::total     60672597                       # number of overall miss cycles
system.cpu0.icache.ReadReq_accesses::cpu0.inst        12399                       # number of ReadReq accesses(hits+misses)
system.cpu0.icache.ReadReq_accesses::total        12399                       # number of ReadReq accesses(hits+misses)
system.cpu0.icache.demand_accesses::cpu0.inst        12399                       # number of demand (read+write) accesses
system.cpu0.icache.demand_accesses::total        12399                       # number of demand (read+write) accesses
system.cpu0.icache.overall_accesses::cpu0.inst        12399                       # number of overall (read+write) accesses
system.cpu0.icache.overall_accesses::total        12399                       # number of overall (read+write) accesses
system.cpu0.icache.ReadReq_miss_rate::cpu0.inst     0.080168                       # miss rate for ReadReq accesses
system.cpu0.icache.ReadReq_miss_rate::total     0.080168                       # miss rate for ReadReq accesses
system.cpu0.icache.demand_miss_rate::cpu0.inst     0.080168                       # miss rate for demand accesses
system.cpu0.icache.demand_miss_rate::total     0.080168                       # miss rate for demand accesses
system.cpu0.icache.overall_miss_rate::cpu0.inst     0.080168                       # miss rate for overall accesses
system.cpu0.icache.overall_miss_rate::total     0.080168                       # miss rate for overall accesses
system.cpu0.icache.ReadReq_avg_miss_latency::cpu0.inst 61038.829980                       # average ReadReq miss latency
system.cpu0.icache.ReadReq_avg_miss_latency::total 61038.829980                       # average ReadReq miss latency
system.cpu0.icache.demand_avg_miss_latency::cpu0.inst 61038.829980                       # average overall miss latency
system.cpu0.icache.demand_avg_miss_latency::total 61038.829980                       # average overall miss latency
system.cpu0.icache.overall_avg_miss_latency::cpu0.inst 61038.829980                       # average overall miss latency
system.cpu0.icache.overall_avg_miss_latency::total 61038.829980                       # average overall miss latency
system.cpu0.icache.blocked_cycles::no_mshrs         1123                       # number of cycles access was blocked
system.cpu0.icache.blocked_cycles::no_targets            0                       # number of cycles access was blocked
system.cpu0.icache.blocked::no_mshrs               19                       # number of cycles access was blocked
system.cpu0.icache.blocked::no_targets              0                       # number of cycles access was blocked
system.cpu0.icache.avg_blocked_cycles::no_mshrs    59.105263                       # average number of cycles each access was blocked
system.cpu0.icache.avg_blocked_cycles::no_targets          nan                       # average number of cycles each access was blocked
system.cpu0.icache.writebacks::writebacks          287                       # number of writebacks
system.cpu0.icache.writebacks::total              287                       # number of writebacks
system.cpu0.icache.ReadReq_mshr_hits::cpu0.inst          195                       # number of ReadReq MSHR hits
system.cpu0.icache.ReadReq_mshr_hits::total          195                       # number of ReadReq MSHR hits
system.cpu0.icache.demand_mshr_hits::cpu0.inst          195                       # number of demand (read+write) MSHR hits
system.cpu0.icache.demand_mshr_hits::total          195                       # number of demand (read+write) MSHR hits
system.cpu0.icache.overall_mshr_hits::cpu0.inst          195                       # number of overall MSHR hits
system.cpu0.icache.overall_mshr_hits::total          195                       # number of overall MSHR hits
system.cpu0.icache.ReadReq_mshr_misses::cpu0.inst          799                       # number of ReadReq MSHR misses
system.cpu0.icache.ReadReq_mshr_misses::total          799                       # number of ReadReq MSHR misses
system.cpu0.icache.demand_mshr_misses::cpu0.inst          799                       # number of demand (read+write) MSHR misses
system.cpu0.icache.demand_mshr_misses::total          799                       # number of demand (read+write) MSHR misses
system.cpu0.icache.overall_mshr_misses::cpu0.inst          799                       # number of overall MSHR misses
system.cpu0.icache.overall_mshr_misses::total          799                       # number of overall MSHR misses
system.cpu0.icache.ReadReq_mshr_miss_latency::cpu0.inst     49903379                       # number of ReadReq MSHR miss cycles
system.cpu0.icache.ReadReq_mshr_miss_latency::total     49903379                       # number of ReadReq MSHR miss cycles
system.cpu0.icache.demand_mshr_miss_latency::cpu0.inst     49903379                       # number of demand (read+write) MSHR miss cycles
system.cpu0.icache.demand_mshr_miss_latency::total     49903379                       # number of demand (read+write) MSHR miss cycles
system.cpu0.icache.overall_mshr_miss_latency::cpu0.inst     49903379                       # number of overall MSHR miss cycles
system.cpu0.icache.overall_mshr_miss_latency::total     49903379                       # number of overall MSHR miss cycles
system.cpu0.icache.ReadReq_mshr_miss_rate::cpu0.inst     0.064441                       # mshr miss rate for ReadReq accesses
system.cpu0.icache.ReadReq_mshr_miss_rate::total     0.064441                       # mshr miss rate for ReadReq accesses
system.cpu0.icache.demand_mshr_miss_rate::cpu0.inst     0.064441                       # mshr miss rate for demand accesses
system.cpu0.icache.demand_mshr_miss_rate::total     0.064441                       # mshr miss rate for demand accesses
system.cpu0.icache.overall_mshr_miss_rate::cpu0.inst     0.064441                       # mshr miss rate for overall accesses
system.cpu0.icache.overall_mshr_miss_rate::total     0.064441                       # mshr miss rate for overall accesses
system.cpu0.icache.ReadReq_avg_mshr_miss_latency::cpu0.inst 62457.295369                       # average ReadReq mshr miss latency
system.cpu0.icache.ReadReq_avg_mshr_miss_latency::total 62457.295369                       # average ReadReq mshr miss latency
system.cpu0.icache.demand_avg_mshr_miss_latency::cpu0.inst 62457.295369                       # average overall mshr miss latency
system.cpu0.icache.demand_avg_mshr_miss_latency::total 62457.295369                       # average overall mshr miss latency
system.cpu0.icache.overall_avg_mshr_miss_latency::cpu0.inst 62457.295369                       # average overall mshr miss latency
system.cpu0.icache.overall_avg_mshr_miss_latency::total 62457.295369                       # average overall mshr miss latency
system.cpu0.itb_walker_cache.tags.pwrStateResidencyTicks::UNDEFINED    106142751                       # Cumulative time (in ticks) in various power states
system.cpu0.itb_walker_cache.tags.replacements            0                       # number of replacements
system.cpu0.itb_walker_cache.tags.tagsinuse            0                       # Cycle average of tags in use
system.cpu0.itb_walker_cache.tags.total_refs            0                       # Total number of references to valid blocks.
system.cpu0.itb_walker_cache.tags.sampled_refs            0                       # Sample count of references to valid blocks.
system.cpu0.itb_walker_cache.tags.avg_refs          nan                       # Average number of references to valid blocks.
system.cpu0.itb_walker_cache.tags.warmup_cycle            0                       # Cycle when the warmup percentage was hit.
system.cpu0.itb_walker_cache.tags.tag_accesses            0                       # Number of tag accesses
system.cpu0.itb_walker_cache.tags.data_accesses            0                       # Number of data accesses
system.cpu0.itb_walker_cache.pwrStateResidencyTicks::UNDEFINED    106142751                       # Cumulative time (in ticks) in various power states
system.cpu0.itb_walker_cache.blocked_cycles::no_mshrs            0                       # number of cycles access was blocked
system.cpu0.itb_walker_cache.blocked_cycles::no_targets            0                       # number of cycles access was blocked
system.cpu0.itb_walker_cache.blocked::no_mshrs            0                       # number of cycles access was blocked
system.cpu0.itb_walker_cache.blocked::no_targets            0                       # number of cycles access was blocked
system.cpu0.itb_walker_cache.avg_blocked_cycles::no_mshrs          nan                       # average number of cycles each access was blocked
system.cpu0.itb_walker_cache.avg_blocked_cycles::no_targets          nan                       # average number of cycles each access was blocked
system.cpu0.l2cache.tags.pwrStateResidencyTicks::UNDEFINED    106142751                       # Cumulative time (in ticks) in various power states
system.cpu0.l2cache.tags.replacements              18                       # number of replacements
system.cpu0.l2cache.tags.tagsinuse        1104.430399                       # Cycle average of tags in use
system.cpu0.l2cache.tags.total_refs              1066                       # Total number of references to valid blocks.
system.cpu0.l2cache.tags.sampled_refs            2006                       # Sample count of references to valid blocks.
system.cpu0.l2cache.tags.avg_refs            0.531406                       # Average number of references to valid blocks.
system.cpu0.l2cache.tags.warmup_cycle           73000                       # Cycle when the warmup percentage was hit.
system.cpu0.l2cache.tags.occ_blocks::writebacks     2.391113                       # Average occupied blocks per requestor
system.cpu0.l2cache.tags.occ_blocks::cpu0.inst   593.950281                       # Average occupied blocks per requestor
system.cpu0.l2cache.tags.occ_blocks::cpu0.data   508.089006                       # Average occupied blocks per requestor
system.cpu0.l2cache.tags.occ_percent::writebacks     0.000584                       # Average percentage of cache occupancy
system.cpu0.l2cache.tags.occ_percent::cpu0.inst     0.145007                       # Average percentage of cache occupancy
system.cpu0.l2cache.tags.occ_percent::cpu0.data     0.124045                       # Average percentage of cache occupancy
system.cpu0.l2cache.tags.occ_percent::total     0.269636                       # Average percentage of cache occupancy
system.cpu0.l2cache.tags.occ_task_id_blocks::1024         1988                       # Occupied blocks per task id
system.cpu0.l2cache.tags.age_task_id_blocks_1024::0          158                       # Occupied blocks per task id
system.cpu0.l2cache.tags.age_task_id_blocks_1024::1         1669                       # Occupied blocks per task id
system.cpu0.l2cache.tags.age_task_id_blocks_1024::2          161                       # Occupied blocks per task id
system.cpu0.l2cache.tags.occ_task_id_percent::1024     0.485352                       # Percentage of cache occupancy per task id
system.cpu0.l2cache.tags.tag_accesses           14298                       # Number of tag accesses
system.cpu0.l2cache.tags.data_accesses          14298                       # Number of data accesses
system.cpu0.l2cache.pwrStateResidencyTicks::UNDEFINED    106142751                       # Cumulative time (in ticks) in various power states
system.cpu0.l2cache.WritebackDirty_hits::writebacks          625                       # number of WritebackDirty hits
system.cpu0.l2cache.WritebackDirty_hits::total          625                       # number of WritebackDirty hits
system.cpu0.l2cache.WritebackClean_hits::writebacks          284                       # number of WritebackClean hits
system.cpu0.l2cache.WritebackClean_hits::total          284                       # number of WritebackClean hits
system.cpu0.l2cache.ReadCleanReq_hits::cpu0.inst           49                       # number of ReadCleanReq hits
system.cpu0.l2cache.ReadCleanReq_hits::total           49                       # number of ReadCleanReq hits
system.cpu0.l2cache.ReadSharedReq_hits::cpu0.data            2                       # number of ReadSharedReq hits
system.cpu0.l2cache.ReadSharedReq_hits::total            2                       # number of ReadSharedReq hits
system.cpu0.l2cache.demand_hits::cpu0.inst           49                       # number of demand (read+write) hits
system.cpu0.l2cache.demand_hits::cpu0.data            2                       # number of demand (read+write) hits
system.cpu0.l2cache.demand_hits::total             51                       # number of demand (read+write) hits
system.cpu0.l2cache.overall_hits::cpu0.inst           49                       # number of overall hits
system.cpu0.l2cache.overall_hits::cpu0.data            2                       # number of overall hits
system.cpu0.l2cache.overall_hits::total            51                       # number of overall hits
system.cpu0.l2cache.ReadExReq_misses::cpu0.data         1097                       # number of ReadExReq misses
system.cpu0.l2cache.ReadExReq_misses::total         1097                       # number of ReadExReq misses
system.cpu0.l2cache.ReadCleanReq_misses::cpu0.inst          750                       # number of ReadCleanReq misses
system.cpu0.l2cache.ReadCleanReq_misses::total          750                       # number of ReadCleanReq misses
system.cpu0.l2cache.ReadSharedReq_misses::cpu0.data          153                       # number of ReadSharedReq misses
system.cpu0.l2cache.ReadSharedReq_misses::total          153                       # number of ReadSharedReq misses
system.cpu0.l2cache.demand_misses::cpu0.inst          750                       # number of demand (read+write) misses
system.cpu0.l2cache.demand_misses::cpu0.data         1250                       # number of demand (read+write) misses
[...]
system.l3.demand_mshr_miss_latency::cpu0.inst     38491671                       # number of demand (read+write) MSHR miss cycles
system.l3.demand_mshr_miss_latency::cpu0.data     57090678                       # number of demand (read+write) MSHR miss cycles
system.l3.demand_mshr_miss_latency::cpu1.inst     38052106                       # number of demand (read+write) MSHR miss cycles
system.l3.demand_mshr_miss_latency::cpu1.data     57447881                       # number of demand (read+write) MSHR miss cycles
system.l3.demand_mshr_miss_latency::cpu2.inst     38175655                       # number of demand (read+write) MSHR miss cycles
system.l3.demand_mshr_miss_latency::cpu2.data     57677180                       # number of demand (read+write) MSHR miss cycles
system.l3.demand_mshr_miss_latency::cpu3.inst     39471927                       # number of demand (read+write) MSHR miss cycles
system.l3.demand_mshr_miss_latency::cpu3.data     56733804                       # number of demand (read+write) MSHR miss cycles
system.l3.demand_mshr_miss_latency::total    383140902                       # number of demand (read+write) MSHR miss cycles
system.l3.overall_mshr_miss_latency::cpu0.inst     38491671                       # number of overall MSHR miss cycles
system.l3.overall_mshr_miss_latency::cpu0.data     57090678                       # number of overall MSHR miss cycles
system.l3.overall_mshr_miss_latency::cpu1.inst     38052106                       # number of overall MSHR miss cycles
system.l3.overall_mshr_miss_latency::cpu1.data     57447881                       # number of overall MSHR miss cycles
system.l3.overall_mshr_miss_latency::cpu2.inst     38175655                       # number of overall MSHR miss cycles
system.l3.overall_mshr_miss_latency::cpu2.data     57677180                       # number of overall MSHR miss cycles
system.l3.overall_mshr_miss_latency::cpu3.inst     39471927                       # number of overall MSHR miss cycles
system.l3.overall_mshr_miss_latency::cpu3.data     56733804                       # number of overall MSHR miss cycles
system.l3.overall_mshr_miss_latency::total    383140902                       # number of overall MSHR miss cycles
system.l3.ReadExReq_mshr_miss_rate::cpu0.data            1                       # mshr miss rate for ReadExReq accesses
system.l3.ReadExReq_mshr_miss_rate::cpu1.data            1                       # mshr miss rate for ReadExReq accesses
system.l3.ReadExReq_mshr_miss_rate::cpu2.data            1                       # mshr miss rate for ReadExReq accesses
system.l3.ReadExReq_mshr_miss_rate::cpu3.data            1                       # mshr miss rate for ReadExReq accesses
system.l3.ReadExReq_mshr_miss_rate::total            1                       # mshr miss rate for ReadExReq accesses
system.l3.ReadSharedReq_mshr_miss_rate::cpu0.inst            1                       # mshr miss rate for ReadSharedReq accesses
system.l3.ReadSharedReq_mshr_miss_rate::cpu0.data            1                       # mshr miss rate for ReadSharedReq accesses
system.l3.ReadSharedReq_mshr_miss_rate::cpu1.inst            1                       # mshr miss rate for ReadSharedReq accesses
system.l3.ReadSharedReq_mshr_miss_rate::cpu1.data            1                       # mshr miss rate for ReadSharedReq accesses
system.l3.ReadSharedReq_mshr_miss_rate::cpu2.inst            1                       # mshr miss rate for ReadSharedReq accesses
system.l3.ReadSharedReq_mshr_miss_rate::cpu2.data            1                       # mshr miss rate for ReadSharedReq accesses
system.l3.ReadSharedReq_mshr_miss_rate::cpu3.inst            1                       # mshr miss rate for ReadSharedReq accesses
system.l3.ReadSharedReq_mshr_miss_rate::cpu3.data            1                       # mshr miss rate for ReadSharedReq accesses
system.l3.ReadSharedReq_mshr_miss_rate::total            1                       # mshr miss rate for ReadSharedReq accesses
system.l3.demand_mshr_miss_rate::cpu0.inst            1                       # mshr miss rate for demand accesses
system.l3.demand_mshr_miss_rate::cpu0.data            1                       # mshr miss rate for demand accesses
system.l3.demand_mshr_miss_rate::cpu1.inst            1                       # mshr miss rate for demand accesses
system.l3.demand_mshr_miss_rate::cpu1.data            1                       # mshr miss rate for demand accesses
system.l3.demand_mshr_miss_rate::cpu2.inst            1                       # mshr miss rate for demand accesses
system.l3.demand_mshr_miss_rate::cpu2.data            1                       # mshr miss rate for demand accesses
system.l3.demand_mshr_miss_rate::cpu3.inst            1                       # mshr miss rate for demand accesses
system.l3.demand_mshr_miss_rate::cpu3.data            1                       # mshr miss rate for demand accesses
system.l3.demand_mshr_miss_rate::total              1                       # mshr miss rate for demand accesses
system.l3.overall_mshr_miss_rate::cpu0.inst            1                       # mshr miss rate for overall accesses
system.l3.overall_mshr_miss_rate::cpu0.data            1                       # mshr miss rate for overall accesses
system.l3.overall_mshr_miss_rate::cpu1.inst            1                       # mshr miss rate for overall accesses
system.l3.overall_mshr_miss_rate::cpu1.data            1                       # mshr miss rate for overall accesses
system.l3.overall_mshr_miss_rate::cpu2.inst            1                       # mshr miss rate for overall accesses
system.l3.overall_mshr_miss_rate::cpu2.data            1                       # mshr miss rate for overall accesses
system.l3.overall_mshr_miss_rate::cpu3.inst            1                       # mshr miss rate for overall accesses
system.l3.overall_mshr_miss_rate::cpu3.data            1                       # mshr miss rate for overall accesses
system.l3.overall_mshr_miss_rate::total             1                       # mshr miss rate for overall accesses
system.l3.ReadExReq_avg_mshr_miss_latency::cpu0.data 42803.714676                       # average ReadExReq mshr miss latency
system.l3.ReadExReq_avg_mshr_miss_latency::cpu1.data 43170.488007                       # average ReadExReq mshr miss latency
system.l3.ReadExReq_avg_mshr_miss_latency::cpu2.data 45436.260209                       # average ReadExReq mshr miss latency
system.l3.ReadExReq_avg_mshr_miss_latency::cpu3.data 45218.634523                       # average ReadExReq mshr miss latency
system.l3.ReadExReq_avg_mshr_miss_latency::total 44132.191524                       # average ReadExReq mshr miss latency
system.l3.ReadSharedReq_avg_mshr_miss_latency::cpu0.inst 51322.228000                       # average ReadSharedReq mshr miss latency
system.l3.ReadSharedReq_avg_mshr_miss_latency::cpu0.data 66241.849673                       # average ReadSharedReq mshr miss latency
system.l3.ReadSharedReq_avg_mshr_miss_latency::cpu1.inst 50668.583222                       # average ReadSharedReq mshr miss latency
system.l3.ReadSharedReq_avg_mshr_miss_latency::cpu1.data 61924.837209                       # average ReadSharedReq mshr miss latency
system.l3.ReadSharedReq_avg_mshr_miss_latency::cpu2.inst 50698.081009                       # average ReadSharedReq mshr miss latency
system.l3.ReadSharedReq_avg_mshr_miss_latency::cpu2.data 63437.406452                       # average ReadSharedReq mshr miss latency
system.l3.ReadSharedReq_avg_mshr_miss_latency::cpu3.inst 52911.430295                       # average ReadSharedReq mshr miss latency
system.l3.ReadSharedReq_avg_mshr_miss_latency::cpu3.data 61130.931677                       # average ReadSharedReq mshr miss latency
system.l3.ReadSharedReq_avg_mshr_miss_latency::total 53461.222741                       # average ReadSharedReq mshr miss latency
system.l3.demand_avg_mshr_miss_latency::cpu0.inst 51322.228000                       # average overall mshr miss latency
system.l3.demand_avg_mshr_miss_latency::cpu0.data 45672.542400                       # average overall mshr miss latency
system.l3.demand_avg_mshr_miss_latency::cpu1.inst 50668.583222                       # average overall mshr miss latency
system.l3.demand_avg_mshr_miss_latency::cpu1.data 45738.758758                       # average overall mshr miss latency
system.l3.demand_avg_mshr_miss_latency::cpu2.inst 50698.081009                       # average overall mshr miss latency
system.l3.demand_avg_mshr_miss_latency::cpu2.data 47746.009934                       # average overall mshr miss latency
system.l3.demand_avg_mshr_miss_latency::cpu3.inst 52911.430295                       # average overall mshr miss latency
system.l3.demand_avg_mshr_miss_latency::cpu3.data 47357.098497                       # average overall mshr miss latency
system.l3.demand_avg_mshr_miss_latency::total 48425.290950                       # average overall mshr miss latency
system.l3.overall_avg_mshr_miss_latency::cpu0.inst 51322.228000                       # average overall mshr miss latency
system.l3.overall_avg_mshr_miss_latency::cpu0.data 45672.542400                       # average overall mshr miss latency
system.l3.overall_avg_mshr_miss_latency::cpu1.inst 50668.583222                       # average overall mshr miss latency
system.l3.overall_avg_mshr_miss_latency::cpu1.data 45738.758758                       # average overall mshr miss latency
system.l3.overall_avg_mshr_miss_latency::cpu2.inst 50698.081009                       # average overall mshr miss latency
system.l3.overall_avg_mshr_miss_latency::cpu2.data 47746.009934                       # average overall mshr miss latency
system.l3.overall_avg_mshr_miss_latency::cpu3.inst 52911.430295                       # average overall mshr miss latency
system.l3.overall_avg_mshr_miss_latency::cpu3.data 47357.098497                       # average overall mshr miss latency
system.l3.overall_avg_mshr_miss_latency::total 48425.290950                       # average overall mshr miss latency
system.membus.snoop_filter.tot_requests          7911                       # Total number of requests made to the snoop filter.
system.membus.snoop_filter.hit_single_requests            0                       # Number of requests hitting in the snoop filter with a single holder of the requested data.
system.membus.snoop_filter.hit_multi_requests            0                       # Number of requests hitting in the snoop filter with multiple (>1) holders of the requested data.
system.membus.snoop_filter.tot_snoops               0                       # Total number of snoops made to the snoop filter.
system.membus.snoop_filter.hit_single_snoops            0                       # Number of snoops hitting in the snoop filter with a single holder of the requested data.
system.membus.snoop_filter.hit_multi_snoops            0                       # Number of snoops hitting in the snoop filter with multiple (>1) holders of the requested data.
system.membus.pwrStateResidencyTicks::UNDEFINED    106142751                       # Cumulative time (in ticks) in various power states
system.membus.trans_dist::ReadResp               3641                       # Transaction distribution
system.membus.trans_dist::ReadExReq              4270                       # Transaction distribution
system.membus.trans_dist::ReadExResp             4269                       # Transaction distribution
system.membus.trans_dist::ReadSharedReq          3641                       # Transaction distribution
system.membus.pkt_count_system.l3.mem_side::system.mem_ctrls.port        15821                       # Packet count per connected master and slave (bytes)
system.membus.pkt_count_system.l3.mem_side::total        15821                       # Packet count per connected master and slave (bytes)
system.membus.pkt_count::total                  15821                       # Packet count per connected master and slave (bytes)
system.membus.pkt_size_system.l3.mem_side::system.mem_ctrls.port       506240                       # Cumulative packet size per connected master and slave (bytes)
system.membus.pkt_size_system.l3.mem_side::total       506240                       # Cumulative packet size per connected master and slave (bytes)
system.membus.pkt_size::total                  506240                       # Cumulative packet size per connected master and slave (bytes)
system.membus.snoops                                0                       # Total snoops (count)
system.membus.snoopTraffic                          0                       # Total snoop traffic (bytes)
system.membus.snoop_fanout::samples              7911                       # Request fanout histogram
system.membus.snoop_fanout::mean                    0                       # Request fanout histogram
system.membus.snoop_fanout::stdev                   0                       # Request fanout histogram
system.membus.snoop_fanout::underflows              0      0.00%      0.00% # Request fanout histogram
system.membus.snoop_fanout::0                    7911    100.00%    100.00% # Request fanout histogram
system.membus.snoop_fanout::1                       0      0.00%    100.00% # Request fanout histogram
system.membus.snoop_fanout::overflows               0      0.00%    100.00% # Request fanout histogram
system.membus.snoop_fanout::min_value               0                       # Request fanout histogram
system.membus.snoop_fanout::max_value               0                       # Request fanout histogram
system.membus.snoop_fanout::total                7911                       # Request fanout histogram
system.membus.reqLayer8.occupancy            10368706                       # Layer occupancy (ticks)
system.membus.reqLayer8.utilization               9.8                       # Layer utilization (%)
system.membus.respLayer1.occupancy           41791630                       # Layer occupancy (ticks)
system.membus.respLayer1.utilization             39.4                       # Layer utilization (%)
system.tol3bus.snoop_filter.tot_requests         7914                       # Total number of requests made to the snoop filter.
system.tol3bus.snoop_filter.hit_single_requests            2                       # Number of requests hitting in the snoop filter with a single holder of the requested data.
system.tol3bus.snoop_filter.hit_multi_requests            0                       # Number of requests hitting in the snoop filter with multiple (>1) holders of the requested data.
system.tol3bus.snoop_filter.tot_snoops              0                       # Total number of snoops made to the snoop filter.
system.tol3bus.snoop_filter.hit_single_snoops            0                       # Number of snoops hitting in the snoop filter with a single holder of the requested data.
system.tol3bus.snoop_filter.hit_multi_snoops            0                       # Number of snoops hitting in the snoop filter with multiple (>1) holders of the requested data.
system.tol3bus.pwrStateResidencyTicks::UNDEFINED    106142751                       # Cumulative time (in ticks) in various power states
system.tol3bus.trans_dist::ReadResp              3641                       # Transaction distribution
system.tol3bus.trans_dist::CleanEvict               2                       # Transaction distribution
system.tol3bus.trans_dist::ReadExReq             4271                       # Transaction distribution
system.tol3bus.trans_dist::ReadExResp            4269                       # Transaction distribution
system.tol3bus.trans_dist::ReadSharedReq         3641                       # Transaction distribution
system.tol3bus.pkt_count_system.cpu0.l2cache.mem_side::system.l3.cpu_side         3999                       # Packet count per connected master and slave (bytes)
system.tol3bus.pkt_count_system.cpu1.l2cache.mem_side::system.l3.cpu_side         4014                       # Packet count per connected master and slave (bytes)
system.tol3bus.pkt_count_system.cpu2.l2cache.mem_side::system.l3.cpu_side         3922                       # Packet count per connected master and slave (bytes)
system.tol3bus.pkt_count_system.cpu3.l2cache.mem_side::system.l3.cpu_side         3889                       # Packet count per connected master and slave (bytes)
system.tol3bus.pkt_count::total                 15824                       # Packet count per connected master and slave (bytes)
system.tol3bus.pkt_size_system.cpu0.l2cache.mem_side::system.l3.cpu_side       127936                       # Cumulative packet size per connected master and slave (bytes)
system.tol3bus.pkt_size_system.cpu1.l2cache.mem_side::system.l3.cpu_side       128448                       # Cumulative packet size per connected master and slave (bytes)
system.tol3bus.pkt_size_system.cpu2.l2cache.mem_side::system.l3.cpu_side       125440                       # Cumulative packet size per connected master and slave (bytes)
system.tol3bus.pkt_size_system.cpu3.l2cache.mem_side::system.l3.cpu_side       124416                       # Cumulative packet size per connected master and slave (bytes)
system.tol3bus.pkt_size::total                 506240                       # Cumulative packet size per connected master and slave (bytes)
system.tol3bus.snoops                               0                       # Total snoops (count)
system.tol3bus.snoopTraffic                         0                       # Total snoop traffic (bytes)
system.tol3bus.snoop_fanout::samples             7912                       # Request fanout histogram
system.tol3bus.snoop_fanout::mean                   0                       # Request fanout histogram
system.tol3bus.snoop_fanout::stdev                  0                       # Request fanout histogram
system.tol3bus.snoop_fanout::underflows             0      0.00%      0.00% # Request fanout histogram
system.tol3bus.snoop_fanout::0                   7912    100.00%    100.00% # Request fanout histogram
system.tol3bus.snoop_fanout::1                      0      0.00%    100.00% # Request fanout histogram
system.tol3bus.snoop_fanout::2                      0      0.00%    100.00% # Request fanout histogram
system.tol3bus.snoop_fanout::3                      0      0.00%    100.00% # Request fanout histogram
system.tol3bus.snoop_fanout::4                      0      0.00%    100.00% # Request fanout histogram
system.tol3bus.snoop_fanout::overflows              0      0.00%    100.00% # Request fanout histogram
system.tol3bus.snoop_fanout::min_value              0                       # Request fanout histogram
system.tol3bus.snoop_fanout::max_value              0                       # Request fanout histogram
system.tol3bus.snoop_fanout::total               7912                       # Request fanout histogram
system.tol3bus.reqLayer0.occupancy           12689154                       # Layer occupancy (ticks)
system.tol3bus.reqLayer0.utilization             12.0                       # Layer utilization (%)
system.tol3bus.respLayer0.occupancy           6342730                       # Layer occupancy (ticks)
system.tol3bus.respLayer0.utilization             6.0                       # Layer utilization (%)
system.tol3bus.respLayer1.occupancy           6371446                       # Layer occupancy (ticks)
system.tol3bus.respLayer1.utilization             6.0                       # Layer utilization (%)
system.tol3bus.respLayer2.occupancy           6221354                       # Layer occupancy (ticks)
system.tol3bus.respLayer2.utilization             5.9                       # Layer utilization (%)
system.tol3bus.respLayer3.occupancy           6171458                       # Layer occupancy (ticks)
system.tol3bus.respLayer3.utilization             5.8                       # Layer utilization (%)

---------- End Simulation Statistics   ----------
