
---------- Begin Simulation Statistics ----------
sim_seconds                                  0.000212                       # Number of seconds simulated
sim_ticks                                   211736052                       # Number of ticks simulated
final_tick                                  211736052                       # Number of ticks from beginning of simulation (restored from checkpoints and never reset)
sim_freq                                 1000000000000                       # Frequency of simulated ticks
host_inst_rate                                  43277                       # Simulator instruction rate (inst/s)
host_op_rate                                    86021                       # Simulator op (including micro ops) rate (op/s)
host_tick_rate                               47147554                       # Simulator tick rate (ticks/s)
host_mem_usage                                8779520                       # Number of bytes of host memory used
host_seconds                                     4.49                       # Real time elapsed on the host
sim_insts                                      194351                       # Number of instructions simulated
sim_ops                                        386314                       # Number of ops (including micro ops) simulated
system.voltage_domain.voltage                       1                       # Voltage in Volts
system.clk_domain.clock                          1000                       # Clock period in ticks
system.mem_ctrls.pwrStateResidencyTicks::UNDEFINED    211736052                       # Cumulative time (in ticks) in various power states
system.mem_ctrls.bytes_read::cpu0.inst          48064                       # Number of bytes read from this memory
system.mem_ctrls.bytes_read::cpu0.data         188800                       # Number of bytes read from this memory
system.mem_ctrls.bytes_read::cpu1.inst          48064                       # Number of bytes read from this memory
system.mem_ctrls.bytes_read::cpu1.data         188864                       # Number of bytes read from this memory
system.mem_ctrls.bytes_read::cpu2.inst          48320                       # Number of bytes read from this memory
system.mem_ctrls.bytes_read::cpu2.data         184192                       # Number of bytes read from this memory
system.mem_ctrls.bytes_read::cpu3.inst          47808                       # Number of bytes read from this memory
system.mem_ctrls.bytes_read::cpu3.data         183296                       # Number of bytes read from this memory
system.mem_ctrls.bytes_read::total             937408                       # Number of bytes read from this memory
system.mem_ctrls.bytes_inst_read::cpu0.inst        48064                       # Number of instructions bytes read from this memory
system.mem_ctrls.bytes_inst_read::cpu1.inst        48064                       # Number of instructions bytes read from this memory
system.mem_ctrls.bytes_inst_read::cpu2.inst        48320                       # Number of instructions bytes read from this memory
system.mem_ctrls.bytes_inst_read::cpu3.inst        47808                       # Number of instructions bytes read from this memory
system.mem_ctrls.bytes_inst_read::total        192256                       # Number of instructions bytes read from this memory
system.mem_ctrls.num_reads::cpu0.inst             751                       # Number of read requests responded to by this memory
system.mem_ctrls.num_reads::cpu0.data            2950                       # Number of read requests responded to by this memory
system.mem_ctrls.num_reads::cpu1.inst             751                       # Number of read requests responded to by this memory
system.mem_ctrls.num_reads::cpu1.data            2951                       # Number of read requests responded to by this memory
system.mem_ctrls.num_reads::cpu2.inst             755                       # Number of read requests responded to by this memory
system.mem_ctrls.num_reads::cpu2.data            2878                       # Number of read requests responded to by this memory
system.mem_ctrls.num_reads::cpu3.inst             747                       # Number of read requests responded to by this memory
system.mem_ctrls.num_reads::cpu3.data            2864                       # Number of read requests responded to by this memory
system.mem_ctrls.num_reads::total               14647                       # Number of read requests responded to by this memory
system.mem_ctrls.bw_read::cpu0.inst         226999604                       # Total read bandwidth from this memory (bytes/s)
system.mem_ctrls.bw_read::cpu0.data         891676208                       # Total read bandwidth from this memory (bytes/s)
system.mem_ctrls.bw_read::cpu1.inst         226999604                       # Total read bandwidth from this memory (bytes/s)
system.mem_ctrls.bw_read::cpu1.data         891978471                       # Total read bandwidth from this memory (bytes/s)
system.mem_ctrls.bw_read::cpu2.inst         228208657                       # Total read bandwidth from this memory (bytes/s)
system.mem_ctrls.bw_read::cpu2.data         869913264                       # Total read bandwidth from this memory (bytes/s)
system.mem_ctrls.bw_read::cpu3.inst         225790552                       # Total read bandwidth from this memory (bytes/s)
system.mem_ctrls.bw_read::cpu3.data         865681580                       # Total read bandwidth from this memory (bytes/s)
system.mem_ctrls.bw_read::total            4427247940                       # Total read bandwidth from this memory (bytes/s)
system.mem_ctrls.bw_inst_read::cpu0.inst    226999604                       # Instruction read bandwidth from this memory (bytes/s)
system.mem_ctrls.bw_inst_read::cpu1.inst    226999604                       # Instruction read bandwidth from this memory (bytes/s)
system.mem_ctrls.bw_inst_read::cpu2.inst    228208657                       # Instruction read bandwidth from this memory (bytes/s)
system.mem_ctrls.bw_inst_read::cpu3.inst    225790552                       # Instruction read bandwidth from this memory (bytes/s)
system.mem_ctrls.bw_inst_read::total        907998417                       # Instruction read bandwidth from this memory (bytes/s)
system.mem_ctrls.bw_total::cpu0.inst        226999604                       # Total bandwidth to/from this memory (bytes/s)
system.mem_ctrls.bw_total::cpu0.data        891676208                       # Total bandwidth to/from this memory (bytes/s)
system.mem_ctrls.bw_total::cpu1.inst        226999604                       # Total bandwidth to/from this memory (bytes/s)
system.mem_ctrls.bw_total::cpu1.data        891978471                       # Total bandwidth to/from this memory (bytes/s)
system.mem_ctrls.bw_total::cpu2.inst        228208657                       # Total bandwidth to/from this memory (bytes/s)
system.mem_ctrls.bw_total::cpu2.data        869913264                       # Total bandwidth to/from this memory (bytes/s)
system.mem_ctrls.bw_total::cpu3.inst        225790552                       # Total bandwidth to/from this memory (bytes/s)
system.mem_ctrls.bw_total::cpu3.data        865681580                       # Total bandwidth to/from this memory (bytes/s)
system.mem_ctrls.bw_total::total           4427247940                       # Total bandwidth to/from this memory (bytes/s)
system.pwrStateResidencyTicks::UNDEFINED    211736052                       # Cumulative time (in ticks) in various power states
system.cpu0.branchPred.lookups                  19711                       # Number of BP lookups
system.cpu0.branchPred.condPredicted            19711                       # Number of conditional branches predicted
system.cpu0.branchPred.condIncorrect             2213                       # Number of conditional branches incorrect
system.cpu0.branchPred.BTBLookups               18227                       # Number of BTB lookups
system.cpu0.branchPred.BTBHits                      0                       # Number of BTB hits
system.cpu0.branchPred.BTBCorrect                   0                       # Number of correct BTB predictions (this stat may not work properly.
system.cpu0.branchPred.BTBHitPct             0.000000                       # BTB Hit Percentage
system.cpu0.branchPred.usedRAS                   1122                       # Number of times the RAS was used to get a target.
system.cpu0.branchPred.RASInCorrect               294                       # Number of incorrect RAS predictions.
system.cpu0.branchPred.indirectLookups          18227                       # Number of indirect predictor lookups.
system.cpu0.branchPred.indirectHits              6082                       # Number of indirect target hits.
system.cpu0.branchPred.indirectMisses           12145                       # Number of indirect misses.
system.cpu0.branchPredindirectMispredicted         1717                       # Number of mispredicted indirect branches.
system.cpu_voltage_domain.voltage                   1                       # Voltage in Volts
system.cpu_clk_domain.clock                       333                       # Clock period in ticks
system.cpu0.dtb.walker.pwrStateResidencyTicks::UNDEFINED    211736052                       # Cumulative time (in ticks) in various power states
system.cpu0.dtb.rdAccesses                      10875                       # TLB accesses on read requests
system.cpu0.dtb.wrAccesses                      28870                       # TLB accesses on write requests
system.cpu0.dtb.rdMisses                          233                       # TLB misses on read requests
system.cpu0.dtb.wrMisses                           97                       # TLB misses on write requests
system.cpu0.apic_clk_domain.clock                5328                       # Clock period in ticks
system.cpu0.interrupts.pwrStateResidencyTicks::UNDEFINED    211736052                       # Cumulative time (in ticks) in various power states
system.cpu0.itb.walker.pwrStateResidencyTicks::UNDEFINED    211736052                       # Cumulative time (in ticks) in various power states
system.cpu0.itb.rdAccesses                          0                       # TLB accesses on read requests
system.cpu0.itb.wrAccesses                      16390                       # TLB accesses on write requests
system.cpu0.itb.rdMisses                            0                       # TLB misses on read requests
system.cpu0.itb.wrMisses                          160                       # TLB misses on write requests
system.cpu0.workload.numSyscalls                   26                       # Number of system calls
system.cpu0.pwrStateResidencyTicks::ON      211736052                       # Cumulative time (in ticks) in various power states
system.cpu0.numCycles                          635845                       # number of cpu cycles simulated
system.cpu0.numWorkItemsStarted                     0                       # number of work items this cpu started
system.cpu0.numWorkItemsCompleted                   0                       # number of work items this cpu completed
system.cpu0.fetch.icacheStallCycles             38072                       # Number of cycles fetch is stalled on an Icache miss
system.cpu0.fetch.Insts                         94954                       # Number of instructions fetch has processed
system.cpu0.fetch.Branches                      19711                       # Number of branches that fetch encountered
system.cpu0.fetch.predictedBranches              7204                       # Number of branches that fetch has predicted taken
system.cpu0.fetch.Cycles                       529518                       # Number of cycles fetch has run and was not squashing or blocked
system.cpu0.fetch.SquashCycles                   4598                       # Number of cycles fetch has spent squashing
system.cpu0.fetch.MiscStallCycles                  75                       # Number of cycles fetch has spent waiting on interrupts, or bad addresses, or out of MSHRs
system.cpu0.fetch.PendingTrapStallCycles          464                       # Number of stall cycles due to pending traps
system.cpu0.fetch.PendingQuiesceStallCycles            6                       # Number of stall cycles due to pending quiesce instructions
system.cpu0.fetch.IcacheWaitRetryStallCycles          256                       # Number of stall cycles due to full MSHR
system.cpu0.fetch.CacheLines                    16293                       # Number of cache lines fetched
system.cpu0.fetch.IcacheSquashes                  933                       # Number of outstanding Icache misses that were squashed
system.cpu0.fetch.rateDist::samples            570690                       # Number of instructions fetched each cycle (Total)
system.cpu0.fetch.rateDist::mean             0.327030                       # Number of instructions fetched each cycle (Total)
system.cpu0.fetch.rateDist::stdev            1.479439                       # Number of instructions fetched each cycle (Total)
system.cpu0.fetch.rateDist::underflows              0      0.00%      0.00% # Number of instructions fetched each cycle (Total)
system.cpu0.fetch.rateDist::0                  540197     94.66%     94.66% # Number of instructions fetched each cycle (Total)
system.cpu0.fetch.rateDist::1                    1441      0.25%     94.91% # Number of instructions fetched each cycle (Total)
system.cpu0.fetch.rateDist::2                    2664      0.47%     95.38% # Number of instructions fetched each cycle (Total)
system.cpu0.fetch.rateDist::3                    1417      0.25%     95.62% # Number of instructions fetched each cycle (Total)
system.cpu0.fetch.rateDist::4                    2869      0.50%     96.13% # Number of instructions fetched each cycle (Total)
system.cpu0.fetch.rateDist::5                    1157      0.20%     96.33% # Number of instructions fetched each cycle (Total)
system.cpu0.fetch.rateDist::6                    4043      0.71%     97.04% # Number of instructions fetched each cycle (Total)
system.cpu0.fetch.rateDist::7                    1122      0.20%     97.23% # Number of instructions fetched each cycle (Total)
system.cpu0.fetch.rateDist::8                   15780      2.77%    100.00% # Number of instructions fetched each cycle (Total)
system.cpu0.fetch.rateDist::overflows               0      0.00%    100.00% # Number of instructions fetched each cycle (Total)
system.cpu0.fetch.rateDist::min_value               0                       # Number of instructions fetched each cycle (Total)
system.cpu0.fetch.rateDist::max_value               8                       # Number of instructions fetched each cycle (Total)
system.cpu0.fetch.rateDist::total              570690                       # Number of instructions fetched each cycle (Total)
system.cpu0.fetch.branchRate                 0.031000                       # Number of branch fetches per cycle
system.cpu0.fetch.rate                       0.149335                       # Number of inst fetches per cycle
system.cpu0.decode.IdleCycles                   30504                       # Number of cycles decode is idle
system.cpu0.decode.BlockedCycles               513197                       # Number of cycles decode is blocked
system.cpu0.decode.RunCycles                    18305                       # Number of cycles decode is running
system.cpu0.decode.UnblockCycles                 6385                       # Number of cycles decode is unblocking
system.cpu0.decode.SquashCycles                  2299                       # Number of cycles decode is squashing
system.cpu0.decode.DecodedInsts                174387                       # Number of instructions handled by decode
system.cpu0.rename.SquashCycles                  2299                       # Number of cycles rename is squashing
system.cpu0.rename.IdleCycles                   33317                       # Number of cycles rename is idle
system.cpu0.rename.BlockCycles                 234524                       # Number of cycles rename is blocking
system.cpu0.rename.serializeStallCycles          3434                       # count of cycles rename stalled for serializing inst
system.cpu0.rename.RunCycles                    21705                       # Number of cycles rename is running
system.cpu0.rename.UnblockCycles               275411                       # Number of cycles rename is unblocking
system.cpu0.rename.RenamedInsts                166116                       # Number of instructions processed by rename
system.cpu0.rename.ROBFullEvents                   63                       # Number of times rename has blocked due to ROB full
system.cpu0.rename.IQFullEvents                   283                       # Number of times rename has blocked due to IQ full
system.cpu0.rename.LQFullEvents                   205                       # Number of times rename has blocked due to LQ full
system.cpu0.rename.SQFullEvents                274711                       # Number of times rename has blocked due to SQ full
system.cpu0.rename.RenamedOperands             163640                       # Number of destination operands rename has renamed
system.cpu0.rename.RenameLookups               438606                       # Number of register rename lookups that rename has made
system.cpu0.rename.int_rename_lookups          247386                       # Number of integer rename lookups
system.cpu0.rename.fp_rename_lookups            24261                       # Number of floating rename lookups
system.cpu0.rename.CommittedMaps                90092                       # Number of HB maps that are committed
system.cpu0.rename.UndoneMaps                   73548                       # Number of HB maps that are undone due to squashing
system.cpu0.rename.serializingInsts                80                       # count of serializing insts renamed
system.cpu0.rename.tempSerializingInsts            76                       # count of temporary serializing insts renamed
system.cpu0.rename.skidInsts                    35402                       # count of insts added to the skid buffer
system.cpu0.memDep0.insertedLoads               13787                       # Number of loads inserted to the mem dependence unit.
system.cpu0.memDep0.insertedStores              31435                       # Number of stores inserted to the mem dependence unit.
system.cpu0.memDep0.conflictingLoads              541                       # Number of conflicting loads.
system.cpu0.memDep0.conflictingStores             487                       # Number of conflicting stores.
system.cpu0.iq.iqInstsAdded                    149849                       # Number of instructions added to the IQ (excludes non-spec)
system.cpu0.iq.iqNonSpecInstsAdded                388                       # Number of non-speculative instructions added to the IQ
system.cpu0.iq.iqInstsIssued                   133646                       # Number of instructions issued
system.cpu0.iq.iqSquashedInstsIssued              726                       # Number of squashed instructions issued
system.cpu0.iq.iqSquashedInstsExamined          52789                       # Number of squashed instructions iterated over during squash; mainly for profiling
system.cpu0.iq.iqSquashedOperandsExamined        71625                       # Number of squashed operands that are examined and possibly removed from graph
system.cpu0.iq.iqSquashedNonSpecRemoved           350                       # Number of squashed non-spec instructions that were removed
system.cpu0.iq.issued_per_cycle::samples       570690                       # Number of insts issued each cycle
system.cpu0.iq.issued_per_cycle::mean        0.234183                       # Number of insts issued each cycle
system.cpu0.iq.issued_per_cycle::stdev       0.960977                       # Number of insts issued each cycle
system.cpu0.iq.issued_per_cycle::underflows            0      0.00%      0.00% # Number of insts issued each cycle
system.cpu0.iq.issued_per_cycle::0             516848     90.57%     90.57% # Number of insts issued each cycle
system.cpu0.iq.issued_per_cycle::1              29934      5.25%     95.81% # Number of insts issued each cycle
system.cpu0.iq.issued_per_cycle::2               4815      0.84%     96.65% # Number of insts issued each cycle
system.cpu0.iq.issued_per_cycle::3               4163      0.73%     97.38% # Number of insts issued each cycle
system.cpu0.iq.issued_per_cycle::4               4719      0.83%     98.21% # Number of insts issued each cycle
system.cpu0.iq.issued_per_cycle::5               3497      0.61%     98.82% # Number of insts issued each cycle
system.cpu0.iq.issued_per_cycle::6               3115      0.55%     99.37% # Number of insts issued each cycle
system.cpu0.iq.issued_per_cycle::7               2250      0.39%     99.76% # Number of insts issued each cycle
system.cpu0.iq.issued_per_cycle::8               1349      0.24%    100.00% # Number of insts issued each cycle
system.cpu0.iq.issued_per_cycle::overflows            0      0.00%    100.00% # Number of insts issued each cycle
system.cpu0.iq.issued_per_cycle::min_value            0                       # Number of insts issued each cycle
system.cpu0.iq.issued_per_cycle::max_value            8                       # Number of insts issued each cycle
system.cpu0.iq.issued_per_cycle::total         570690                       # Number of insts issued each cycle
system.cpu0.iq.fu_full::No_OpClass                  0      0.00%      0.00% # attempts to use FU when none available
system.cpu0.iq.fu_full::IntAlu                   1394     81.33%     81.33% # attempts to use FU when none available
system.cpu0.iq.fu_full::IntMult                     0      0.00%     81.33% # attempts to use FU when none available
system.cpu0.iq.fu_full::IntDiv                      0      0.00%     81.33% # attempts to use FU when none available
system.cpu0.iq.fu_full::FloatAdd                   14      0.82%     82.15% # attempts to use FU when none available
system.cpu0.iq.fu_full::FloatCmp                    0      0.00%     82.15% # attempts to use FU when none available
system.cpu0.iq.fu_full::FloatCvt                    0      0.00%     82.15% # attempts to use FU when none available
system.cpu0.iq.fu_full::FloatMult                   0      0.00%     82.15% # attempts to use FU when none available
system.cpu0.iq.fu_full::FloatMultAcc                0      0.00%     82.15% # attempts to use FU when none available
system.cpu0.iq.fu_full::FloatDiv                    0      0.00%     82.15% # attempts to use FU when none available
system.cpu0.iq.fu_full::FloatMisc                   0      0.00%     82.15% # attempts to use FU when none available
system.cpu0.iq.fu_full::FloatSqrt                   0      0.00%     82.15% # attempts to use FU when none available
system.cpu0.iq.fu_full::SimdAdd                     0      0.00%     82.15% # attempts to use FU when none available
system.cpu0.iq.fu_full::SimdAddAcc                  0      0.00%     82.15% # attempts to use FU when none available
system.cpu0.iq.fu_full::SimdAlu                     0      0.00%     82.15% # attempts to use FU when none available
system.cpu0.iq.fu_full::SimdCmp                     0      0.00%     82.15% # attempts to use FU when none available
system.cpu0.iq.fu_full::SimdCvt                     0      0.00%     82.15% # attempts to use FU when none available
system.cpu0.iq.fu_full::SimdMisc                    0      0.00%     82.15% # attempts to use FU when none available
system.cpu0.iq.fu_full::SimdMult                    0      0.00%     82.15% # attempts to use FU when none available
system.cpu0.iq.fu_full::SimdMultAcc                 0      0.00%     82.15% # attempts to use FU when none available
system.cpu0.iq.fu_full::SimdShift                   0      0.00%     82.15% # attempts to use FU when none available
system.cpu0.iq.fu_full::SimdShiftAcc                0      0.00%     82.15% # attempts to use FU when none available
system.cpu0.iq.fu_full::SimdSqrt                    0      0.00%     82.15% # attempts to use FU when none available
system.cpu0.iq.fu_full::SimdFloatAdd                0      0.00%     82.15% # attempts to use FU when none available
system.cpu0.iq.fu_full::SimdFloatAlu                0      0.00%     82.15% # attempts to use FU when none available
system.cpu0.iq.fu_full::SimdFloatCmp                0      0.00%     82.15% # attempts to use FU when none available
system.cpu0.iq.fu_full::SimdFloatCvt                0      0.00%     82.15% # attempts to use FU when none available
system.cpu0.iq.fu_full::SimdFloatDiv                0      0.00%     82.15% # attempts to use FU when none available
system.cpu0.iq.fu_full::SimdFloatMisc               0      0.00%     82.15% # attempts to use FU when none available
system.cpu0.iq.fu_full::SimdFloatMult               0      0.00%     82.15% # attempts to use FU when none available
system.cpu0.iq.fu_full::SimdFloatMultAcc            0      0.00%     82.15% # attempts to use FU when none available
system.cpu0.iq.fu_full::SimdFloatSqrt               0      0.00%     82.15% # attempts to use FU when none available
system.cpu0.iq.fu_full::MemRead                    77      4.49%     86.64% # attempts to use FU when none available
system.cpu0.iq.fu_full::MemWrite                   78      4.55%     91.19% # attempts to use FU when none available
system.cpu0.iq.fu_full::FloatMemRead                6      0.35%     91.54% # attempts to use FU when none available
system.cpu0.iq.fu_full::FloatMemWrite             145      8.46%    100.00% # attempts to use FU when none available
system.cpu0.iq.fu_full::IprAccess                   0      0.00%    100.00% # attempts to use FU when none available
system.cpu0.iq.fu_full::InstPrefetch                0      0.00%    100.00% # attempts to use FU when none available
system.cpu0.iq.FU_type_0::No_OpClass             1007      0.75%      0.75% # Type of FU issued
system.cpu0.iq.FU_type_0::IntAlu                90214     67.50%     68.26% # Type of FU issued
system.cpu0.iq.FU_type_0::IntMult                  68      0.05%     68.31% # Type of FU issued
system.cpu0.iq.FU_type_0::IntDiv                   96      0.07%     68.38% # Type of FU issued
system.cpu0.iq.FU_type_0::FloatAdd               1021      0.76%     69.14% # Type of FU issued
system.cpu0.iq.FU_type_0::FloatCmp                  0      0.00%     69.14% # Type of FU issued
system.cpu0.iq.FU_type_0::FloatCvt                  0      0.00%     69.14% # Type of FU issued
system.cpu0.iq.FU_type_0::FloatMult                 0      0.00%     69.14% # Type of FU issued
system.cpu0.iq.FU_type_0::FloatMultAcc              0      0.00%     69.14% # Type of FU issued
system.cpu0.iq.FU_type_0::FloatDiv                  0      0.00%     69.14% # Type of FU issued
system.cpu0.iq.FU_type_0::FloatMisc                 0      0.00%     69.14% # Type of FU issued
system.cpu0.iq.FU_type_0::FloatSqrt                 0      0.00%     69.14% # Type of FU issued
system.cpu0.iq.FU_type_0::SimdAdd                   0      0.00%     69.14% # Type of FU issued
system.cpu0.iq.FU_type_0::SimdAddAcc                0      0.00%     69.14% # Type of FU issued
system.cpu0.iq.FU_type_0::SimdAlu                   0      0.00%     69.14% # Type of FU issued
system.cpu0.iq.FU_type_0::SimdCmp                   0      0.00%     69.14% # Type of FU issued
system.cpu0.iq.FU_type_0::SimdCvt                   0      0.00%     69.14% # Type of FU issued
system.cpu0.iq.FU_type_0::SimdMisc                  0      0.00%     69.14% # Type of FU issued
system.cpu0.iq.FU_type_0::SimdMult                  0      0.00%     69.14% # Type of FU issued
system.cpu0.iq.FU_type_0::SimdMultAcc               0      0.00%     69.14% # Type of FU issued
system.cpu0.iq.FU_type_0::SimdShift                 0      0.00%     69.14% # Type of FU issued
system.cpu0.iq.FU_type_0::SimdShiftAcc              0      0.00%     69.14% # Type of FU issued
system.cpu0.iq.FU_type_0::SimdSqrt                  0      0.00%     69.14% # Type of FU issued
system.cpu0.iq.FU_type_0::SimdFloatAdd              0      0.00%     69.14% # Type of FU issued
system.cpu0.iq.FU_type_0::SimdFloatAlu              0      0.00%     69.14% # Type of FU issued
system.cpu0.iq.FU_type_0::SimdFloatCmp              0      0.00%     69.14% # Type of FU issued
system.cpu0.iq.FU_type_0::SimdFloatCvt              0      0.00%     69.14% # Type of FU issued
system.cpu0.iq.FU_type_0::SimdFloatDiv              0      0.00%     69.14% # Type of FU issued
system.cpu0.iq.FU_type_0::SimdFloatMisc             0      0.00%     69.14% # Type of FU issued
system.cpu0.iq.FU_type_0::SimdFloatMult             0      0.00%     69.14% # Type of FU issued
system.cpu0.iq.FU_type_0::SimdFloatMultAcc            0      0.00%     69.14% # Type of FU issued
system.cpu0.iq.FU_type_0::SimdFloatSqrt             0      0.00%     69.14% # Type of FU issued
system.cpu0.iq.FU_type_0::MemRead               11583      8.67%     77.81% # Type of FU issued
system.cpu0.iq.FU_type_0::MemWrite               7634      5.71%     83.52% # Type of FU issued
system.cpu0.iq.FU_type_0::FloatMemRead            172      0.13%     83.65% # Type of FU issued
system.cpu0.iq.FU_type_0::FloatMemWrite         21851     16.35%    100.00% # Type of FU issued
system.cpu0.iq.FU_type_0::IprAccess                 0      0.00%    100.00% # Type of FU issued
system.cpu0.iq.FU_type_0::InstPrefetch              0      0.00%    100.00% # Type of FU issued
system.cpu0.iq.FU_type_0::total                133646                       # Type of FU issued
system.cpu0.iq.rate                          0.210186                       # Inst issue rate
system.cpu0.iq.fu_busy_cnt                       1714                       # FU busy when requested
system.cpu0.iq.fu_busy_rate                  0.012825                       # FU busy rate (busy events/executed inst)
system.cpu0.iq.int_inst_queue_reads            793861                       # Number of integer instruction queue reads
system.cpu0.iq.int_inst_queue_writes           179382                       # Number of integer instruction queue writes
system.cpu0.iq.int_inst_queue_wakeup_accesses       103523                       # Number of integer instruction queue wakeup accesses
system.cpu0.iq.fp_inst_queue_reads              46561                       # Number of floating instruction queue reads
system.cpu0.iq.fp_inst_queue_writes             23687                       # Number of floating instruction queue writes
system.cpu0.iq.fp_inst_queue_wakeup_accesses        23071                       # Number of floating instruction queue wakeup accesses
system.cpu0.iq.vec_inst_queue_reads                 0                       # Number of vector instruction queue reads
system.cpu0.iq.vec_inst_queue_writes                0                       # Number of vector instruction queue writes
system.cpu0.iq.vec_inst_queue_wakeup_accesses            0                       # Number of vector instruction queue wakeup accesses
system.cpu0.iq.int_alu_accesses                111026                       # Number of integer alu accesses
system.cpu0.iq.fp_alu_accesses                  23327                       # Number of floating point alu accesses
system.cpu0.iq.vec_alu_accesses                     0                       # Number of vector alu accesses
system.cpu0.iew.lsq.thread0.forwLoads             878                       # Number of loads that had data forwarded from stores
system.cpu0.iew.lsq.thread0.invAddrLoads            0                       # Number of loads ignored due to an invalid address
system.cpu0.iew.lsq.thread0.squashedLoads         6699                       # Number of loads squashed
system.cpu0.iew.lsq.thread0.ignoredResponses           21                       # Number of memory responses ignored because the instruction is squashed
system.cpu0.iew.lsq.thread0.memOrderViolation           46                       # Number of memory ordering violations
system.cpu0.iew.lsq.thread0.squashedStores         4711                       # Number of stores squashed
system.cpu0.iew.lsq.thread0.invAddrSwpfs            0                       # Number of software prefetches ignored due to an invalid address
system.cpu0.iew.lsq.thread0.blockedLoads            0                       # Number of blocked loads due to partial load-store forwarding
system.cpu0.iew.lsq.thread0.rescheduledLoads           29                       # Number of loads that were rescheduled
system.cpu0.iew.lsq.thread0.cacheBlocked           15                       # Number of times an access to memory failed due to the cache being blocked
system.cpu0.iew.iewIdleCycles                       0                       # Number of cycles IEW is idle
system.cpu0.iew.iewSquashCycles                  2299                       # Number of cycles IEW is squashing
system.cpu0.iew.iewBlockCycles                   7801                       # Number of cycles IEW is blocking
system.cpu0.iew.iewUnblockCycles               224685                       # Number of cycles IEW is unblocking
system.cpu0.iew.iewDispatchedInsts             150237                       # Number of instructions dispatched to IQ
system.cpu0.iew.iewDispSquashedInsts               86                       # Number of squashed instructions skipped by dispatch
system.cpu0.iew.iewDispLoadInsts                13787                       # Number of dispatched load instructions
system.cpu0.iew.iewDispStoreInsts               31435                       # Number of dispatched store instructions
system.cpu0.iew.iewDispNonSpecInsts               173                       # Number of dispatched non-speculative instructions
system.cpu0.iew.iewIQFullEvents                    19                       # Number of times the IQ has become full, causing a stall
system.cpu0.iew.iewLSQFullEvents               224658                       # Number of times the LSQ has become full, causing a stall
system.cpu0.iew.memOrderViolationEvents            46                       # Number of memory order violations
system.cpu0.iew.predictedTakenIncorrect           464                       # Number of branches that were predicted taken incorrectly
system.cpu0.iew.predictedNotTakenIncorrect         2502                       # Number of branches that were predicted not taken incorrectly
system.cpu0.iew.branchMispredicts                2966                       # Number of branch mispredicts detected at execute
system.cpu0.iew.iewExecutedInsts               128595                       # Number of executed instructions
system.cpu0.iew.iewExecLoadInsts                10830                       # Number of load instructions executed
system.cpu0.iew.iewExecSquashedInsts             5051                       # Number of squashed instructions skipped in execute
system.cpu0.iew.exec_swp                            0                       # number of swp insts executed
system.cpu0.iew.exec_nop                            0                       # number of nop insts executed
system.cpu0.iew.exec_refs                       39697                       # number of memory reference insts executed
system.cpu0.iew.exec_branches                   11927                       # Number of branches executed
system.cpu0.iew.exec_stores                     28867                       # Number of stores executed
system.cpu0.iew.exec_rate                    0.202243                       # Inst execution rate
system.cpu0.iew.wb_sent                        127503                       # cumulative count of insts sent to commit
system.cpu0.iew.wb_count                       126594                       # cumulative count of insts written-back
system.cpu0.iew.wb_producers                    74432                       # num instructions producing a value
system.cpu0.iew.wb_consumers                   111543                       # num instructions consuming a value
system.cpu0.iew.wb_rate                      0.199096                       # insts written-back per cycle
system.cpu0.iew.wb_fanout                    0.667294                       # average fanout of values written-back
system.cpu0.commit.commitSquashedInsts          52795                       # The number of squashed insts skipped by commit
system.cpu0.commit.commitNonSpecStalls             38                       # The number of times commit has been forced to stall to communicate backwards
system.cpu0.commit.branchMispredicts             2268                       # The number of times a branch was mispredicted
system.cpu0.commit.committed_per_cycle::samples       562206                       # Number of insts commited each cycle
system.cpu0.commit.committed_per_cycle::mean     0.173331                       # Number of insts commited each cycle
system.cpu0.commit.committed_per_cycle::stdev     0.809755                       # Number of insts commited each cycle
system.cpu0.commit.committed_per_cycle::underflows            0      0.00%      0.00% # Number of insts commited each cycle
system.cpu0.commit.committed_per_cycle::0       516172     91.81%     91.81% # Number of insts commited each cycle
system.cpu0.commit.committed_per_cycle::1        28991      5.16%     96.97% # Number of insts commited each cycle
system.cpu0.commit.committed_per_cycle::2         4796      0.85%     97.82% # Number of insts commited each cycle
system.cpu0.commit.committed_per_cycle::3         5802      1.03%     98.85% # Number of insts commited each cycle
system.cpu0.commit.committed_per_cycle::4         1530      0.27%     99.13% # Number of insts commited each cycle
system.cpu0.commit.committed_per_cycle::5          757      0.13%     99.26% # Number of insts commited each cycle
system.cpu0.commit.committed_per_cycle::6          635      0.11%     99.37% # Number of insts commited each cycle
system.cpu0.commit.committed_per_cycle::7          440      0.08%     99.45% # Number of insts commited each cycle
system.cpu0.commit.committed_per_cycle::8         3083      0.55%    100.00% # Number of insts commited each cycle
system.cpu0.commit.committed_per_cycle::overflows            0      0.00%    100.00% # Number of insts commited each cycle
system.cpu0.commit.committed_per_cycle::min_value            0                       # Number of insts commited each cycle
system.cpu0.commit.committed_per_cycle::max_value            8                       # Number of insts commited each cycle
system.cpu0.commit.committed_per_cycle::total       562206                       # Number of insts commited each cycle
system.cpu0.commit.committedInsts               49033                       # Number of instructions committed
system.cpu0.commit.committedOps                 97448                       # Number of ops (including micro ops) committed
system.cpu0.commit.swp_count                        0                       # Number of s/w prefetches committed
system.cpu0.commit.refs                         33812                       # Number of memory references committed
system.cpu0.commit.loads                         7088                       # Number of loads committed
system.cpu0.commit.membars                          8                       # Number of memory barriers committed
system.cpu0.commit.branches                      9605                       # Number of branches committed
system.cpu0.commit.vec_insts                        0                       # Number of committed Vector instructions.
system.cpu0.commit.fp_insts                     22873                       # Number of committed floating point instructions.
system.cpu0.commit.int_insts                    96264                       # Number of committed integer instructions.
system.cpu0.commit.function_calls                 461                       # Number of function calls committed.
system.cpu0.commit.op_class_0::No_OpClass          240      0.25%      0.25% # Class of committed instruction
system.cpu0.commit.op_class_0::IntAlu           62257     63.89%     64.13% # Class of committed instruction
system.cpu0.commit.op_class_0::IntMult             58      0.06%     64.19% # Class of committed instruction
system.cpu0.commit.op_class_0::IntDiv              77      0.08%     64.27% # Class of committed instruction
system.cpu0.commit.op_class_0::FloatAdd          1004      1.03%     65.30% # Class of committed instruction
system.cpu0.commit.op_class_0::FloatCmp             0      0.00%     65.30% # Class of committed instruction
system.cpu0.commit.op_class_0::FloatCvt             0      0.00%     65.30% # Class of committed instruction
system.cpu0.commit.op_class_0::FloatMult            0      0.00%     65.30% # Class of committed instruction
system.cpu0.commit.op_class_0::FloatMultAcc            0      0.00%     65.30% # Class of committed instruction
system.cpu0.commit.op_class_0::FloatDiv             0      0.00%     65.30% # Class of committed instruction
system.cpu0.commit.op_class_0::FloatMisc            0      0.00%     65.30% # Class of committed instruction
system.cpu0.commit.op_class_0::FloatSqrt            0      0.00%     65.30% # Class of committed instruction
system.cpu0.commit.op_class_0::SimdAdd              0      0.00%     65.30% # Class of committed instruction
system.cpu0.commit.op_class_0::SimdAddAcc            0      0.00%     65.30% # Class of committed instruction
system.cpu0.commit.op_class_0::SimdAlu              0      0.00%     65.30% # Class of committed instruction
system.cpu0.commit.op_class_0::SimdCmp              0      0.00%     65.30% # Class of committed instruction
system.cpu0.commit.op_class_0::SimdCvt              0      0.00%     65.30% # Class of committed instruction
system.cpu0.commit.op_class_0::SimdMisc             0      0.00%     65.30% # Class of committed instruction
system.cpu0.commit.op_class_0::SimdMult             0      0.00%     65.30% # Class of committed instruction
system.cpu0.commit.op_class_0::SimdMultAcc            0      0.00%     65.30% # Class of committed instruction
system.cpu0.commit.op_class_0::SimdShift            0      0.00%     65.30% # Class of committed instruction
system.cpu0.commit.op_class_0::SimdShiftAcc            0      0.00%     65.30% # Class of committed instruction
system.cpu0.commit.op_class_0::SimdSqrt             0      0.00%     65.30% # Class of committed instruction
system.cpu0.commit.op_class_0::SimdFloatAdd            0      0.00%     65.30% # Class of committed instruction
system.cpu0.commit.op_class_0::SimdFloatAlu            0      0.00%     65.30% # Class of committed instruction
system.cpu0.commit.op_class_0::SimdFloatCmp            0      0.00%     65.30% # Class of committed instruction
system.cpu0.commit.op_class_0::SimdFloatCvt            0      0.00%     65.30% # Class of committed instruction
system.cpu0.commit.op_class_0::SimdFloatDiv            0      0.00%     65.30% # Class of committed instruction
system.cpu0.commit.op_class_0::SimdFloatMisc            0      0.00%     65.30% # Class of committed instruction
system.cpu0.commit.op_class_0::SimdFloatMult            0      0.00%     65.30% # Class of committed instruction
system.cpu0.commit.op_class_0::SimdFloatMultAcc            0      0.00%     65.30% # Class of committed instruction
system.cpu0.commit.op_class_0::SimdFloatSqrt            0      0.00%     65.30% # Class of committed instruction
system.cpu0.commit.op_class_0::MemRead           6935      7.12%     72.42% # Class of committed instruction
system.cpu0.commit.op_class_0::MemWrite          5123      5.26%     77.68% # Class of committed instruction
system.cpu0.commit.op_class_0::FloatMemRead          153      0.16%     77.83% # Class of committed instruction
system.cpu0.commit.op_class_0::FloatMemWrite        21601     22.17%    100.00% # Class of committed instruction
system.cpu0.commit.op_class_0::IprAccess            0      0.00%    100.00% # Class of committed instruction
system.cpu0.commit.op_class_0::InstPrefetch            0      0.00%    100.00% # Class of committed instruction
system.cpu0.commit.op_class_0::total            97448                       # Class of committed instruction
system.cpu0.commit.bw_lim_events                 3083                       # number cycles where commit BW limit reached
system.cpu0.rob.rob_reads                      709366                       # The number of ROB reads
system.cpu0.rob.rob_writes                     309146                       # The number of ROB writes
system.cpu0.timesIdled                            426                       # Number of times that the entire CPU went into an idle state and unscheduled itself
system.cpu0.idleCycles                          65155                       # Total number of cycles that the CPU has spent unscheduled due to idling
system.cpu0.committedInsts                      49033                       # Number of Instructions Simulated
system.cpu0.committedOps                        97448                       # Number of Ops (including micro ops) Simulated
system.cpu0.cpi                             12.967695                       # CPI: Cycles Per Instruction
system.cpu0.cpi_total                       12.967695                       # CPI: Total CPI of All Threads
system.cpu0.ipc                              0.077115                       # IPC: Instructions Per Cycle
system.cpu0.ipc_total                        0.077115                       # IPC: Total IPC of All Threads
system.cpu0.int_regfile_reads                  183499                       # number of integer regfile reads
system.cpu0.int_regfile_writes                  84718                       # number of integer regfile writes
system.cpu0.fp_regfile_reads                    23997                       # number of floating regfile reads
system.cpu0.fp_regfile_writes                    1143                       # number of floating regfile writes
system.cpu0.cc_regfile_reads                    57028                       # number of cc regfile reads
system.cpu0.cc_regfile_writes                   35473                       # number of cc regfile writes
system.cpu0.misc_regfile_reads                  66417                       # number of misc regfile reads
system.cpu0.dcache.tags.pwrStateResidencyTicks::UNDEFINED    211736052                       # Cumulative time (in ticks) in various power states
system.cpu0.dcache.tags.replacements             2450                       # number of replacements
system.cpu0.dcache.tags.tagsinuse          430.116663                       # Cycle average of tags in use
system.cpu0.dcache.tags.total_refs              33342                       # Total number of references to valid blocks.
system.cpu0.dcache.tags.sampled_refs             2962                       # Sample count of references to valid blocks.
system.cpu0.dcache.tags.avg_refs            11.256583                       # Average number of references to valid blocks.
system.cpu0.dcache.tags.warmup_cycle           150183                       # Cycle when the warmup percentage was hit.
system.cpu0.dcache.tags.occ_blocks::cpu0.data   430.116663                       # Average occupied blocks per requestor
system.cpu0.dcache.tags.occ_percent::cpu0.data     0.840072                       # Average percentage of cache occupancy
system.cpu0.dcache.tags.occ_percent::total     0.840072                       # Average percentage of cache occupancy
system.cpu0.dcache.tags.occ_task_id_blocks::1024          512                       # Occupied blocks per task id
system.cpu0.dcache.tags.age_task_id_blocks_1024::0          162                       # Occupied blocks per task id
system.cpu0.dcache.tags.age_task_id_blocks_1024::1          334                       # Occupied blocks per task id
system.cpu0.dcache.tags.age_task_id_blocks_1024::2           16                       # Occupied blocks per task id
system.cpu0.dcache.tags.occ_task_id_percent::1024            1                       # Percentage of cache occupancy per task id
system.cpu0.dcache.tags.tag_accesses           294458                       # Number of tag accesses
system.cpu0.dcache.tags.data_accesses          294458                       # Number of data accesses
system.cpu0.dcache.pwrStateResidencyTicks::UNDEFINED    211736052                       # Cumulative time (in ticks) in various power states
system.cpu0.dcache.ReadReq_hits::cpu0.data         9452                       # number of ReadReq hits
system.cpu0.dcache.ReadReq_hits::total           9452                       # number of ReadReq hits
system.cpu0.dcache.WriteReq_hits::cpu0.data        23890                       # number of WriteReq hits
system.cpu0.dcache.WriteReq_hits::total         23890                       # number of WriteReq hits
system.cpu0.dcache.demand_hits::cpu0.data        33342                       # number of demand (read+write) hits
system.cpu0.dcache.demand_hits::total           33342                       # number of demand (read+write) hits
system.cpu0.dcache.overall_hits::cpu0.data        33342                       # number of overall hits
system.cpu0.dcache.overall_hits::total          33342                       # number of overall hits
system.cpu0.dcache.ReadReq_misses::cpu0.data          292                       # number of ReadReq misses
system.cpu0.dcache.ReadReq_misses::total          292                       # number of ReadReq misses
system.cpu0.dcache.WriteReq_misses::cpu0.data         2803                       # number of WriteReq misses
system.cpu0.dcache.WriteReq_misses::total         2803                       # number of WriteReq misses
system.cpu0.dcache.demand_misses::cpu0.data         3095                       # number of demand (read+write) misses
system.cpu0.dcache.demand_misses::total          3095                       # number of demand (read+write) misses
system.cpu0.dcache.overall_misses::cpu0.data         3095                       # number of overall misses
system.cpu0.dcache.overall_misses::total         3095                       # number of overall misses
system.cpu0.dcache.ReadReq_miss_latency::cpu0.data     21169809                       # number of ReadReq miss cycles
system.cpu0.dcache.ReadReq_miss_latency::total     21169809                       # number of ReadReq miss cycles
system.cpu0.dcache.WriteReq_miss_latency::cpu0.data    161361144                       # number of WriteReq miss cycles
system.cpu0.dcache.WriteReq_miss_latency::total    161361144                       # number of WriteReq miss cycles
system.cpu0.dcache.demand_miss_latency::cpu0.data    182530953                       # number of demand (read+write) miss cycles
system.cpu0.dcache.demand_miss_latency::total    182530953                       # number of demand (read+write) miss cycles
system.cpu0.dcache.overall_miss_latency::cpu0.data    182530953                       # number of overall miss cycles
system.cpu0.dcache.overall_miss_latency::total    182530953                       # number of overall miss cycles
system.cpu0.dcache.ReadReq_accesses::cpu0.data         9744                       # number of ReadReq accesses(hits+misses)
system.cpu0.dcache.ReadReq_accesses::total         9744                       # number of ReadReq accesses(hits+misses)
system.cpu0.dcache.WriteReq_accesses::cpu0.data        26693                       # number of WriteReq accesses(hits+misses)
system.cpu0.dcache.WriteReq_accesses::total        26693                       # number of WriteReq accesses(hits+misses)
system.cpu0.dcache.demand_accesses::cpu0.data        36437                       # number of demand (read+write) accesses
system.cpu0.dcache.demand_accesses::total        36437                       # number of demand (read+write) accesses
system.cpu0.dcache.overall_accesses::cpu0.data        36437                       # number of overall (read+write) accesses
system.cpu0.dcache.overall_accesses::total        36437                       # number of overall (read+write) accesses
system.cpu0.dcache.ReadReq_miss_rate::cpu0.data     0.029967                       # miss rate for ReadReq accesses
system.cpu0.dcache.ReadReq_miss_rate::total     0.029967                       # miss rate for ReadReq accesses
system.cpu0.dcache.WriteReq_miss_rate::cpu0.data     0.105009                       # miss rate for WriteReq accesses
system.cpu0.dcache.WriteReq_miss_rate::total     0.105009                       # miss rate for WriteReq accesses
system.cpu0.dcache.demand_miss_rate::cpu0.data     0.084941                       # miss rate for demand accesses
system.cpu0.dcache.demand_miss_rate::total     0.084941                       # miss rate for demand accesses
system.cpu0.dcache.overall_miss_rate::cpu0.data     0.084941                       # miss rate for overall accesses
system.cpu0.dcache.overall_miss_rate::total     0.084941                       # miss rate for overall accesses
system.cpu0.dcache.ReadReq_avg_miss_latency::cpu0.data 72499.345890                       # average ReadReq miss latency
system.cpu0.dcache.ReadReq_avg_miss_latency::total 72499.345890                       # average ReadReq miss latency
system.cpu0.dcache.WriteReq_avg_miss_latency::cpu0.data 57567.300749                       # average WriteReq miss latency
system.cpu0.dcache.WriteReq_avg_miss_latency::total 57567.300749                       # average WriteReq miss latency
system.cpu0.dcache.demand_avg_miss_latency::cpu0.data 58976.075283                       # average overall miss latency
system.cpu0.dcache.demand_avg_miss_latency::total 58976.075283                       # average overall miss latency
system.cpu0.dcache.overall_avg_miss_latency::cpu0.data 58976.075283                       # average overall miss latency
system.cpu0.dcache.overall_avg_miss_latency::total 58976.075283                       # average overall miss latency
system.cpu0.dcache.blocked_cycles::no_mshrs          519                       # number of cycles access was blocked
system.cpu0.dcache.blocked_cycles::no_targets            0                       # number of cycles access was blocked
system.cpu0.dcache.blocked::no_mshrs                6                       # number of cycles access was blocked
system.cpu0.dcache.blocked::no_targets              0                       # number of cycles access was blocked
system.cpu0.dcache.avg_blocked_cycles::no_mshrs    86.500000                       # average number of cycles each access was blocked
system.cpu0.dcache.avg_blocked_cycles::no_targets          nan                       # average number of cycles each access was blocked
system.cpu0.dcache.writebacks::writebacks         2335                       # number of writebacks
system.cpu0.dcache.writebacks::total             2335                       # number of writebacks
system.cpu0.dcache.ReadReq_mshr_hits::cpu0.data          131                       # number of ReadReq MSHR hits
system.cpu0.dcache.ReadReq_mshr_hits::total          131                       # number of ReadReq MSHR hits
system.cpu0.dcache.WriteReq_mshr_hits::cpu0.data            1                       # number of WriteReq MSHR hits
system.cpu0.dcache.WriteReq_mshr_hits::total            1                       # number of WriteReq MSHR hits
system.cpu0.dcache.demand_mshr_hits::cpu0.data          132                       # number of demand (read+write) MSHR hits
system.cpu0.dcache.demand_mshr_hits::total          132                       # number of demand (read+write) MSHR hits
system.cpu0.dcache.overall_mshr_hits::cpu0.data          132                       # number of overall MSHR hits
system.cpu0.dcache.overall_mshr_hits::total          132                       # number of overall MSHR hits
system.cpu0.dcache.ReadReq_mshr_misses::cpu0.data          161                       # number of ReadReq MSHR misses
system.cpu0.dcache.ReadReq_mshr_misses::total          161                       # number of ReadReq MSHR misses
system.cpu0.dcache.WriteReq_mshr_misses::cpu0.data         2802                       # number of WriteReq MSHR misses
system.cpu0.dcache.WriteReq_mshr_misses::total         2802                       # number of WriteReq MSHR misses
system.cpu0.dcache.demand_mshr_misses::cpu0.data         2963                       # number of demand (read+write) MSHR misses
system.cpu0.dcache.demand_mshr_misses::total         2963                       # number of demand (read+write) MSHR misses
system.cpu0.dcache.overall_mshr_misses::cpu0.data         2963                       # number of overall MSHR misses
system.cpu0.dcache.overall_mshr_misses::total         2963                       # number of overall MSHR misses
system.cpu0.dcache.ReadReq_mshr_miss_latency::cpu0.data     12495492                       # number of ReadReq MSHR miss cycles
system.cpu0.dcache.ReadReq_mshr_miss_latency::total     12495492                       # number of ReadReq MSHR miss cycles
system.cpu0.dcache.WriteReq_mshr_miss_latency::cpu0.data    159419754                       # number of WriteReq MSHR miss cycles
system.cpu0.dcache.WriteReq_mshr_miss_latency::total    159419754                       # number of WriteReq MSHR miss cycles
system.cpu0.dcache.demand_mshr_miss_latency::cpu0.data    171915246                       # number of demand (read+write) MSHR miss cycles
system.cpu0.dcache.demand_mshr_miss_latency::total    171915246                       # number of demand (read+write) MSHR miss cycles
system.cpu0.dcache.overall_mshr_miss_latency::cpu0.data    171915246                       # number of overall MSHR miss cycles
system.cpu0.dcache.overall_mshr_miss_latency::total    171915246                       # number of overall MSHR miss cycles
system.cpu0.dcache.ReadReq_mshr_miss_rate::cpu0.data     0.016523                       # mshr miss rate for ReadReq accesses
system.cpu0.dcache.ReadReq_mshr_miss_rate::total     0.016523                       # mshr miss rate for ReadReq accesses
system.cpu0.dcache.WriteReq_mshr_miss_rate::cpu0.data     0.104971                       # mshr miss rate for WriteReq accesses
system.cpu0.dcache.WriteReq_mshr_miss_rate::total     0.104971                       # mshr miss rate for WriteReq accesses
system.cpu0.dcache.demand_mshr_miss_rate::cpu0.data     0.081318                       # mshr miss rate for demand accesses
system.cpu0.dcache.demand_mshr_miss_rate::total     0.081318                       # mshr miss rate for demand accesses
system.cpu0.dcache.overall_mshr_miss_rate::cpu0.data     0.081318                       # mshr miss rate for overall accesses
system.cpu0.dcache.overall_mshr_miss_rate::total     0.081318                       # mshr miss rate for overall accesses
system.cpu0.dcache.ReadReq_avg_mshr_miss_latency::cpu0.data 77611.751553                       # average ReadReq mshr miss latency
system.cpu0.dcache.ReadReq_avg_mshr_miss_latency::total 77611.751553                       # average ReadReq mshr miss latency
system.cpu0.dcache.WriteReq_avg_mshr_miss_latency::cpu0.data 56894.987152                       # average WriteReq mshr miss latency
system.cpu0.dcache.WriteReq_avg_mshr_miss_latency::total 56894.987152                       # average WriteReq mshr miss latency
system.cpu0.dcache.demand_avg_mshr_miss_latency::cpu0.data 58020.670267                       # average overall mshr miss latency
system.cpu0.dcache.demand_avg_mshr_miss_latency::total 58020.670267                       # average overall mshr miss latency
system.cpu0.dcache.overall_avg_mshr_miss_latency::cpu0.data 58020.670267                       # average overall mshr miss latency
system.cpu0.dcache.overall_avg_mshr_miss_latency::total 58020.670267                       # average overall mshr miss latency
system.cpu0.dtb_walker_cache.tags.pwrStateResidencyTicks::UNDEFINED    211736052                       # Cumulative time (in ticks) in various power states
system.cpu0.dtb_walker_cache.tags.replacements            0                       # number of replacements
system.cpu0.dtb_walker_cache.tags.tagsinuse            0                       # Cycle average of tags in use
system.cpu0.dtb_walker_cache.tags.total_refs            0                       # Total number of references to valid blocks.
system.cpu0.dtb_walker_cache.tags.sampled_refs            0                       # Sample count of references to valid blocks.
system.cpu0.dtb_walker_cache.tags.avg_refs          nan                       # Average number of references to valid blocks.
system.cpu0.dtb_walker_cache.tags.warmup_cycle            0                       # Cycle when the warmup percentage was hit.
system.cpu0.dtb_walker_cache.tags.tag_accesses            0                       # Number of tag accesses
system.cpu0.dtb_walker_cache.tags.data_accesses            0                       # Number of data accesses
system.cpu0.dtb_walker_cache.pwrStateResidencyTicks::UNDEFINED    211736052                       # Cumulative time (in ticks) in various power states
system.cpu0.dtb_walker_cache.blocked_cycles::no_mshrs            0                       # number of cycles access was blocked
system.cpu0.dtb_walker_cache.blocked_cycles::no_targets            0                       # number of cycles access was blocked
system.cpu0.dtb_walker_cache.blocked::no_mshrs            0                       # number of cycles access was blocked
system.cpu0.dtb_walker_cache.blocked::no_targets            0                       # number of cycles access was blocked
system.cpu0.dtb_walker_cache.avg_blocked_cycles::no_mshrs          nan                       # average number of cycles each access was blocked
system.cpu0.dtb_walker_cache.avg_blocked_cycles::no_targets          nan                       # average number of cycles each access was blocked
system.cpu0.icache.tags.pwrStateResidencyTicks::UNDEFINED    211736052                       # Cumulative time (in ticks) in various power states
system.cpu0.icache.tags.replacements              298                       # number of replacements
system.cpu0.icache.tags.tagsinuse          473.715210                       # Cycle average of tags in use
system.cpu0.icache.tags.total_refs              15288                       # Total number of references to valid blocks.
system.cpu0.icache.tags.sampled_refs              810                       # Sample count of references to valid blocks.
system.cpu0.icache.tags.avg_refs            18.874074                       # Average number of references to valid blocks.
system.cpu0.icache.tags.warmup_cycle            76257                       # Cycle when the warmup percentage was hit.
system.cpu0.icache.tags.occ_blocks::cpu0.inst   473.715210                       # Average occupied blocks per requestor
system.cpu0.icache.tags.occ_percent::cpu0.inst     0.925225                       # Average percentage of cache occupancy
system.cpu0.icache.tags.occ_percent::total     0.925225                       # Average percentage of cache occupancy
system.cpu0.icache.tags.occ_task_id_blocks::1024          512                       # Occupied blocks per task id
system.cpu0.icache.tags.age_task_id_blocks_1024::1           11                       # Occupied blocks per task id
system.cpu0.icache.tags.age_task_id_blocks_1024::2          501                       # Occupied blocks per task id
system.cpu0.icache.tags.occ_task_id_percent::1024            1                       # Percentage of cache occupancy per task id
system.cpu0.icache.tags.tag_accesses           131154                       # Number of tag accesses
system.cpu0.icache.tags.data_accesses          131154                       # Number of data accesses
system.cpu0.icache.pwrStateResidencyTicks::UNDEFINED    211736052                       # Cumulative time (in ticks) in various power states
system.cpu0.icache.ReadReq_hits::cpu0.inst        15288                       # number of ReadReq hits
system.cpu0.icache.ReadReq_hits::total          15288                       # number of ReadReq hits
system.cpu0.icache.demand_hits::cpu0.inst        15288                       # number of demand (read+write) hits
system.cpu0.icache.demand_hits::total           15288                       # number of demand (read+write) hits
system.cpu0.icache.overall_hits::cpu0.inst        15288                       # number of overall hits
system.cpu0.icache.overall_hits::total          15288                       # number of overall hits
system.cpu0.icache.ReadReq_misses::cpu0.inst         1005                       # number of ReadReq misses
system.cpu0.icache.ReadReq_misses::total         1005                       # number of ReadReq misses
system.cpu0.icache.demand_misses::cpu0.inst         1005                       # number of demand (read+write) misses
system.cpu0.icache.demand_misses::total          1005                       # number of demand (read+write) misses
system.cpu0.icache.overall_misses::cpu0.inst         1005                       # number of overall misses
system.cpu0.icache.overall_misses::total         1005                       # number of overall misses
system.cpu0.icache.ReadReq_miss_latency::cpu0.inst     60798138                       # number of ReadReq miss cycles
system.cpu0.icache.ReadReq_miss_latency::total     60798138                       # number of ReadReq miss cycles
system.cpu0.icache.demand_miss_latency::cpu0.inst     60798138                       # number of demand (read+write) miss cycles
system.cpu0.icache.demand_miss_latency::total     60798138                       # number of demand (read+write) miss cycles
system.cpu0.icache.overall_miss_latency::cpu0.inst     60798138                       # number of overall miss cycles
system.cpu0.icache.overall_miss_latency::total     60798138                       # number of overall miss cycles
system.cpu0.icache.ReadReq_accesses::cpu0.inst        16293                       # number of ReadReq accesses(hits+misses)
system.cpu0.icache.ReadReq_accesses::total        16293                       # number of ReadReq accesses(hits+misses)
system.cpu0.icache.demand_accesses::cpu0.inst        16293                       # number of demand (read+write) accesses
system.cpu0.icache.demand_accesses::total        16293                       # number of demand (read+write) accesses
system.cpu0.icache.overall_accesses::cpu0.inst        16293                       # number of overall (read+write) accesses
system.cpu0.icache.overall_accesses::total        16293                       # number of overall (read+write) accesses
system.cpu0.icache.ReadReq_miss_rate::cpu0.inst     0.061683                       # miss rate for ReadReq accesses
system.cpu0.icache.ReadReq_miss_rate::total     0.061683                       # miss rate for ReadReq accesses
system.cpu0.icache.demand_miss_rate::cpu0.inst     0.061683                       # miss rate for demand accesses
system.cpu0.icache.demand_miss_rate::total     0.061683                       # miss rate for demand accesses
system.cpu0.icache.overall_miss_rate::cpu0.inst     0.061683                       # miss rate for overall accesses
system.cpu0.icache.overall_miss_rate::total     0.061683                       # miss rate for overall accesses
system.cpu0.icache.ReadReq_avg_miss_latency::cpu0.inst 60495.659701                       # average ReadReq miss latency
system.cpu0.icache.ReadReq_avg_miss_latency::total 60495.659701                       # average ReadReq miss latency
system.cpu0.icache.demand_avg_miss_latency::cpu0.inst 60495.659701                       # average overall miss latency
system.cpu0.icache.demand_avg_miss_latency::total 60495.659701                       # average overall miss latency
system.cpu0.icache.overall_avg_miss_latency::cpu0.inst 60495.659701                       # average overall miss latency
system.cpu0.icache.overall_avg_miss_latency::total 60495.659701                       # average overall miss latency
system.cpu0.icache.blocked_cycles::no_mshrs         1123                       # number of cycles access was blocked
system.cpu0.icache.blocked_cycles::no_targets            0                       # number of cycles access was blocked
system.cpu0.icache.blocked::no_mshrs               19                       # number of cycles access was blocked
system.cpu0.icache.blocked::no_targets              0                       # number of cycles access was blocked
system.cpu0.icache.avg_blocked_cycles::no_mshrs    59.105263                       # average number of cycles each access was blocked
system.cpu0.icache.avg_blocked_cycles::no_targets          nan                       # average number of cycles each access was blocked
system.cpu0.icache.writebacks::writebacks          298                       # number of writebacks
system.cpu0.icache.writebacks::total              298                       # number of writebacks
system.cpu0.icache.ReadReq_mshr_hits::cpu0.inst          195                       # number of ReadReq MSHR hits
system.cpu0.icache.ReadReq_mshr_hits::total          195                       # number of ReadReq MSHR hits
system.cpu0.icache.demand_mshr_hits::cpu0.inst          195                       # number of demand (read+write) MSHR hits
system.cpu0.icache.demand_mshr_hits::total          195                       # number of demand (read+write) MSHR hits
system.cpu0.icache.overall_mshr_hits::cpu0.inst          195                       # number of overall MSHR hits
system.cpu0.icache.overall_mshr_hits::total          195                       # number of overall MSHR hits
system.cpu0.icache.ReadReq_mshr_misses::cpu0.inst          810                       # number of ReadReq MSHR misses
system.cpu0.icache.ReadReq_mshr_misses::total          810                       # number of ReadReq MSHR misses
system.cpu0.icache.demand_mshr_misses::cpu0.inst          810                       # number of demand (read+write) MSHR misses
system.cpu0.icache.demand_mshr_misses::total          810                       # number of demand (read+write) MSHR misses
system.cpu0.icache.overall_mshr_misses::cpu0.inst          810                       # number of overall MSHR misses
system.cpu0.icache.overall_mshr_misses::total          810                       # number of overall MSHR misses
system.cpu0.icache.ReadReq_mshr_miss_latency::cpu0.inst     50021594                       # number of ReadReq MSHR miss cycles
system.cpu0.icache.ReadReq_mshr_miss_latency::total     50021594                       # number of ReadReq MSHR miss cycles
system.cpu0.icache.demand_mshr_miss_latency::cpu0.inst     50021594                       # number of demand (read+write) MSHR miss cycles
system.cpu0.icache.demand_mshr_miss_latency::total     50021594                       # number of demand (read+write) MSHR miss cycles
system.cpu0.icache.overall_mshr_miss_latency::cpu0.inst     50021594                       # number of overall MSHR miss cycles
system.cpu0.icache.overall_mshr_miss_latency::total     50021594                       # number of overall MSHR miss cycles
system.cpu0.icache.ReadReq_mshr_miss_rate::cpu0.inst     0.049715                       # mshr miss rate for ReadReq accesses
system.cpu0.icache.ReadReq_mshr_miss_rate::total     0.049715                       # mshr miss rate for ReadReq accesses
system.cpu0.icache.demand_mshr_miss_rate::cpu0.inst     0.049715                       # mshr miss rate for demand accesses
system.cpu0.icache.demand_mshr_miss_rate::total     0.049715                       # mshr miss rate for demand accesses
system.cpu0.icache.overall_mshr_miss_rate::cpu0.inst     0.049715                       # mshr miss rate for overall accesses
system.cpu0.icache.overall_mshr_miss_rate::total     0.049715                       # mshr miss rate for overall accesses
system.cpu0.icache.ReadReq_avg_mshr_miss_latency::cpu0.inst 61755.054321                       # average ReadReq mshr miss latency
system.cpu0.icache.ReadReq_avg_mshr_miss_latency::total 61755.054321                       # average ReadReq mshr miss latency
system.cpu0.icache.demand_avg_mshr_miss_latency::cpu0.inst 61755.054321                       # average overall mshr miss latency
system.cpu0.icache.demand_avg_mshr_miss_latency::total 61755.054321                       # average overall mshr miss latency
system.cpu0.icache.overall_avg_mshr_miss_latency::cpu0.inst 61755.054321                       # average overall mshr miss latency
system.cpu0.icache.overall_avg_mshr_miss_latency::total 61755.054321                       # average overall mshr miss latency
system.cpu0.itb_walker_cache.tags.pwrStateResidencyTicks::UNDEFINED    211736052                       # Cumulative time (in ticks) in various power states
system.cpu0.itb_walker_cache.tags.replacements            0                       # number of replacements
system.cpu0.itb_walker_cache.tags.tagsinuse            0                       # Cycle average of tags in use
system.cpu0.itb_walker_cache.tags.total_refs            0                       # Total number of references to valid blocks.
system.cpu0.itb_walker_cache.tags.sampled_refs            0                       # Sample count of references to valid blocks.
system.cpu0.itb_walker_cache.tags.avg_refs          nan                       # Average number of references to valid blocks.
system.cpu0.itb_walker_cache.tags.warmup_cycle            0                       # Cycle when the warmup percentage was hit.
system.cpu0.itb_walker_cache.tags.tag_accesses            0                       # Number of tag accesses
system.cpu0.itb_walker_cache.tags.data_accesses            0                       # Number of data accesses
system.cpu0.itb_walker_cache.pwrStateResidencyTicks::UNDEFINED    211736052                       # Cumulative time (in ticks) in various power states
system.cpu0.itb_walker_cache.blocked_cycles::no_mshrs            0                       # number of cycles access was blocked
system.cpu0.itb_walker_cache.blocked_cycles::no_targets            0                       # number of cycles access was blocked
system.cpu0.itb_walker_cache.blocked::no_mshrs            0                       # number of cycles access was blocked
system.cpu0.itb_walker_cache.blocked::no_targets            0                       # number of cycles access was blocked
system.cpu0.itb_walker_cache.avg_blocked_cycles::no_mshrs          nan                       # average number of cycles each access was blocked
system.cpu0.itb_walker_cache.avg_blocked_cycles::no_targets          nan                       # average number of cycles each access was blocked
system.cpu0.l2cache.tags.pwrStateResidencyTicks::UNDEFINED    211736052                       # Cumulative time (in ticks) in various power states
system.cpu0.l2cache.tags.replacements             184                       # number of replacements
system.cpu0.l2cache.tags.tagsinuse        1940.255441                       # Cycle average of tags in use
system.cpu0.l2cache.tags.total_refs              2806                       # Total number of references to valid blocks.
system.cpu0.l2cache.tags.sampled_refs            3710                       # Sample count of references to valid blocks.
system.cpu0.l2cache.tags.avg_refs            0.756334                       # Average number of references to valid blocks.
system.cpu0.l2cache.tags.warmup_cycle           73000                       # Cycle when the warmup percentage was hit.
system.cpu0.l2cache.tags.occ_blocks::writebacks     4.955387                       # Average occupied blocks per requestor
system.cpu0.l2cache.tags.occ_blocks::cpu0.inst   644.624110                       # Average occupied blocks per requestor
system.cpu0.l2cache.tags.occ_blocks::cpu0.data  1290.675944                       # Average occupied blocks per requestor
system.cpu0.l2cache.tags.occ_percent::writebacks     0.001210                       # Average percentage of cache occupancy
system.cpu0.l2cache.tags.occ_percent::cpu0.inst     0.157379                       # Average percentage of cache occupancy
system.cpu0.l2cache.tags.occ_percent::cpu0.data     0.315106                       # Average percentage of cache occupancy
system.cpu0.l2cache.tags.occ_percent::total     0.473695                       # Average percentage of cache occupancy
system.cpu0.l2cache.tags.occ_task_id_blocks::1024         3526                       # Occupied blocks per task id
system.cpu0.l2cache.tags.age_task_id_blocks_1024::0          161                       # Occupied blocks per task id
system.cpu0.l2cache.tags.age_task_id_blocks_1024::1         1451                       # Occupied blocks per task id
system.cpu0.l2cache.tags.age_task_id_blocks_1024::2         1914                       # Occupied blocks per task id
system.cpu0.l2cache.tags.occ_task_id_percent::1024     0.860840                       # Percentage of cache occupancy per task id
system.cpu0.l2cache.tags.tag_accesses           29778                       # Number of tag accesses
system.cpu0.l2cache.tags.data_accesses          29778                       # Number of data accesses
system.cpu0.l2cache.pwrStateResidencyTicks::UNDEFINED    211736052                       # Cumulative time (in ticks) in various power states
system.cpu0.l2cache.WritebackDirty_hits::writebacks         2335                       # number of WritebackDirty hits
system.cpu0.l2cache.WritebackDirty_hits::total         2335                       # number of WritebackDirty hits
system.cpu0.l2cache.WritebackClean_hits::writebacks          295                       # number of WritebackClean hits
system.cpu0.l2cache.WritebackClean_hits::total          295                       # number of WritebackClean hits
system.cpu0.l2cache.ReadExReq_hits::cpu0.data            4                       # number of ReadExReq hits
system.cpu0.l2cache.ReadExReq_hits::total            4                       # number of ReadExReq hits
system.cpu0.l2cache.ReadCleanReq_hits::cpu0.inst           58                       # number of ReadCleanReq hits
system.cpu0.l2cache.ReadCleanReq_hits::total           58                       # number of ReadCleanReq hits
system.cpu0.l2cache.ReadSharedReq_hits::cpu0.data            8                       # number of ReadSharedReq hits
system.cpu0.l2cache.ReadSharedReq_hits::total            8                       # number of ReadSharedReq hits
system.cpu0.l2cache.demand_hits::cpu0.inst           58                       # number of demand (read+write) hits
system.cpu0.l2cache.demand_hits::cpu0.data           12                       # number of demand (read+write) hits
system.cpu0.l2cache.demand_hits::total             70                       # number of demand (read+write) hits
system.cpu0.l2cache.overall_hits::cpu0.inst           58                       # number of overall hits
system.cpu0.l2cache.overall_hits::cpu0.data           12                       # number of overall hits
system.cpu0.l2cache.overall_hits::total            70                       # number of overall hits
system.cpu0.l2cache.ReadExReq_misses::cpu0.data         2798                       # number of ReadExReq misses
system.cpu0.l2cache.ReadExReq_misses::total         2798                       # number of ReadExReq misses
system.cpu0.l2cache.ReadCleanReq_misses::cpu0.inst          752                       # number of ReadCleanReq misses
system.cpu0.l2cache.ReadCleanReq_misses::total          752                       # number of ReadCleanReq misses
system.cpu0.l2cache.ReadSharedReq_misses::cpu0.data          153                       # number of ReadSharedReq misses
system.cpu0.l2cache.ReadSharedReq_misses::total          153                       # number of ReadSharedReq misses
[...]
system.l3.demand_mshr_miss_latency::cpu0.data    128044671                       # number of demand (read+write) MSHR miss cycles
system.l3.demand_mshr_miss_latency::cpu1.inst     38052106                       # number of demand (read+write) MSHR miss cycles
system.l3.demand_mshr_miss_latency::cpu1.data    128719388                       # number of demand (read+write) MSHR miss cycles
system.l3.demand_mshr_miss_latency::cpu2.inst     38605530                       # number of demand (read+write) MSHR miss cycles
system.l3.demand_mshr_miss_latency::cpu2.data    129440885                       # number of demand (read+write) MSHR miss cycles
system.l3.demand_mshr_miss_latency::cpu3.inst     39538846                       # number of demand (read+write) MSHR miss cycles
system.l3.demand_mshr_miss_latency::cpu3.data    128572370                       # number of demand (read+write) MSHR miss cycles
system.l3.demand_mshr_miss_latency::total    669516388                       # number of demand (read+write) MSHR miss cycles
system.l3.overall_mshr_miss_latency::cpu0.inst     38542592                       # number of overall MSHR miss cycles
system.l3.overall_mshr_miss_latency::cpu0.data    128044671                       # number of overall MSHR miss cycles
system.l3.overall_mshr_miss_latency::cpu1.inst     38052106                       # number of overall MSHR miss cycles
system.l3.overall_mshr_miss_latency::cpu1.data    128719388                       # number of overall MSHR miss cycles
system.l3.overall_mshr_miss_latency::cpu2.inst     38605530                       # number of overall MSHR miss cycles
system.l3.overall_mshr_miss_latency::cpu2.data    129440885                       # number of overall MSHR miss cycles
system.l3.overall_mshr_miss_latency::cpu3.inst     39538846                       # number of overall MSHR miss cycles
system.l3.overall_mshr_miss_latency::cpu3.data    128572370                       # number of overall MSHR miss cycles
system.l3.overall_mshr_miss_latency::total    669516388                       # number of overall MSHR miss cycles
system.l3.ReadExReq_mshr_miss_rate::cpu0.data            1                       # mshr miss rate for ReadExReq accesses
system.l3.ReadExReq_mshr_miss_rate::cpu1.data            1                       # mshr miss rate for ReadExReq accesses
system.l3.ReadExReq_mshr_miss_rate::cpu2.data            1                       # mshr miss rate for ReadExReq accesses
system.l3.ReadExReq_mshr_miss_rate::cpu3.data            1                       # mshr miss rate for ReadExReq accesses
system.l3.ReadExReq_mshr_miss_rate::total            1                       # mshr miss rate for ReadExReq accesses
system.l3.ReadSharedReq_mshr_miss_rate::cpu0.inst     0.998670                       # mshr miss rate for ReadSharedReq accesses
system.l3.ReadSharedReq_mshr_miss_rate::cpu0.data            1                       # mshr miss rate for ReadSharedReq accesses
system.l3.ReadSharedReq_mshr_miss_rate::cpu1.inst     0.998670                       # mshr miss rate for ReadSharedReq accesses
system.l3.ReadSharedReq_mshr_miss_rate::cpu1.data            1                       # mshr miss rate for ReadSharedReq accesses
system.l3.ReadSharedReq_mshr_miss_rate::cpu2.inst     0.998677                       # mshr miss rate for ReadSharedReq accesses
system.l3.ReadSharedReq_mshr_miss_rate::cpu2.data            1                       # mshr miss rate for ReadSharedReq accesses
system.l3.ReadSharedReq_mshr_miss_rate::cpu3.inst     0.998663                       # mshr miss rate for ReadSharedReq accesses
system.l3.ReadSharedReq_mshr_miss_rate::cpu3.data            1                       # mshr miss rate for ReadSharedReq accesses
system.l3.ReadSharedReq_mshr_miss_rate::total     0.998906                       # mshr miss rate for ReadSharedReq accesses
system.l3.demand_mshr_miss_rate::cpu0.inst     0.998670                       # mshr miss rate for demand accesses
system.l3.demand_mshr_miss_rate::cpu0.data            1                       # mshr miss rate for demand accesses
system.l3.demand_mshr_miss_rate::cpu1.inst     0.998670                       # mshr miss rate for demand accesses
system.l3.demand_mshr_miss_rate::cpu1.data            1                       # mshr miss rate for demand accesses
system.l3.demand_mshr_miss_rate::cpu2.inst     0.998677                       # mshr miss rate for demand accesses
system.l3.demand_mshr_miss_rate::cpu2.data            1                       # mshr miss rate for demand accesses
system.l3.demand_mshr_miss_rate::cpu3.inst     0.998663                       # mshr miss rate for demand accesses
system.l3.demand_mshr_miss_rate::cpu3.data            1                       # mshr miss rate for demand accesses
system.l3.demand_mshr_miss_rate::total       0.999727                       # mshr miss rate for demand accesses
system.l3.overall_mshr_miss_rate::cpu0.inst     0.998670                       # mshr miss rate for overall accesses
system.l3.overall_mshr_miss_rate::cpu0.data            1                       # mshr miss rate for overall accesses
system.l3.overall_mshr_miss_rate::cpu1.inst     0.998670                       # mshr miss rate for overall accesses
system.l3.overall_mshr_miss_rate::cpu1.data            1                       # mshr miss rate for overall accesses
system.l3.overall_mshr_miss_rate::cpu2.inst     0.998677                       # mshr miss rate for overall accesses
system.l3.overall_mshr_miss_rate::cpu2.data            1                       # mshr miss rate for overall accesses
system.l3.overall_mshr_miss_rate::cpu3.inst     0.998663                       # mshr miss rate for overall accesses
system.l3.overall_mshr_miss_rate::cpu3.data            1                       # mshr miss rate for overall accesses
system.l3.overall_mshr_miss_rate::total      0.999727                       # mshr miss rate for overall accesses
system.l3.ReadExReq_avg_mshr_miss_latency::cpu0.data 42140.696212                       # average ReadExReq mshr miss latency
system.l3.ReadExReq_avg_mshr_miss_latency::cpu1.data 42450.043557                       # average ReadExReq mshr miss latency
system.l3.ReadExReq_avg_mshr_miss_latency::cpu2.data 43902.050698                       # average ReadExReq mshr miss latency
system.l3.ReadExReq_avg_mshr_miss_latency::cpu3.data 43898.300148                       # average ReadExReq mshr miss latency
system.l3.ReadExReq_avg_mshr_miss_latency::total 43086.407091                       # average ReadExReq mshr miss latency
system.l3.ReadSharedReq_avg_mshr_miss_latency::cpu0.inst 51321.693742                       # average ReadSharedReq mshr miss latency
system.l3.ReadSharedReq_avg_mshr_miss_latency::cpu0.data 66241.849673                       # average ReadSharedReq mshr miss latency
system.l3.ReadSharedReq_avg_mshr_miss_latency::cpu1.inst 50668.583222                       # average ReadSharedReq mshr miss latency
system.l3.ReadSharedReq_avg_mshr_miss_latency::cpu1.data 62029.695402                       # average ReadSharedReq mshr miss latency
system.l3.ReadSharedReq_avg_mshr_miss_latency::cpu2.inst 51133.152318                       # average ReadSharedReq mshr miss latency
system.l3.ReadSharedReq_avg_mshr_miss_latency::cpu2.data 63308.936306                       # average ReadSharedReq mshr miss latency
system.l3.ReadSharedReq_avg_mshr_miss_latency::cpu3.inst 52930.182062                       # average ReadSharedReq mshr miss latency
system.l3.ReadSharedReq_avg_mshr_miss_latency::cpu3.data 61099.159509                       # average ReadSharedReq mshr miss latency
system.l3.ReadSharedReq_avg_mshr_miss_latency::total 53565.026020                       # average ReadSharedReq mshr miss latency
system.l3.demand_avg_mshr_miss_latency::cpu0.inst 51321.693742                       # average overall mshr miss latency
system.l3.demand_avg_mshr_miss_latency::cpu0.data 43390.264656                       # average overall mshr miss latency
system.l3.demand_avg_mshr_miss_latency::cpu1.inst 50668.583222                       # average overall mshr miss latency
system.l3.demand_avg_mshr_miss_latency::cpu1.data 43604.128726                       # average overall mshr miss latency
system.l3.demand_avg_mshr_miss_latency::cpu2.inst 51133.152318                       # average overall mshr miss latency
system.l3.demand_avg_mshr_miss_latency::cpu2.data 44960.362973                       # average overall mshr miss latency
system.l3.demand_avg_mshr_miss_latency::cpu3.inst 52930.182062                       # average overall mshr miss latency
system.l3.demand_avg_mshr_miss_latency::cpu3.data 44876.917976                       # average overall mshr miss latency
system.l3.demand_avg_mshr_miss_latency::total 45697.658044                       # average overall mshr miss latency
system.l3.overall_avg_mshr_miss_latency::cpu0.inst 51321.693742                       # average overall mshr miss latency
system.l3.overall_avg_mshr_miss_latency::cpu0.data 43390.264656                       # average overall mshr miss latency
system.l3.overall_avg_mshr_miss_latency::cpu1.inst 50668.583222                       # average overall mshr miss latency
system.l3.overall_avg_mshr_miss_latency::cpu1.data 43604.128726                       # average overall mshr miss latency
system.l3.overall_avg_mshr_miss_latency::cpu2.inst 51133.152318                       # average overall mshr miss latency
system.l3.overall_avg_mshr_miss_latency::cpu2.data 44960.362973                       # average overall mshr miss latency
system.l3.overall_avg_mshr_miss_latency::cpu3.inst 52930.182062                       # average overall mshr miss latency
system.l3.overall_avg_mshr_miss_latency::cpu3.data 44876.917976                       # average overall mshr miss latency
system.l3.overall_avg_mshr_miss_latency::total 45697.658044                       # average overall mshr miss latency
system.membus.snoop_filter.tot_requests         14650                       # Total number of requests made to the snoop filter.
system.membus.snoop_filter.hit_single_requests            0                       # Number of requests hitting in the snoop filter with a single holder of the requested data.
system.membus.snoop_filter.hit_multi_requests            0                       # Number of requests hitting in the snoop filter with multiple (>1) holders of the requested data.
system.membus.snoop_filter.tot_snoops               0                       # Total number of snoops made to the snoop filter.
system.membus.snoop_filter.hit_single_snoops            0                       # Number of snoops hitting in the snoop filter with a single holder of the requested data.
system.membus.snoop_filter.hit_multi_snoops            0                       # Number of snoops hitting in the snoop filter with multiple (>1) holders of the requested data.
system.membus.pwrStateResidencyTicks::UNDEFINED    211736052                       # Cumulative time (in ticks) in various power states
system.membus.trans_dist::ReadResp               3651                       # Transaction distribution
system.membus.trans_dist::ReadExReq             10999                       # Transaction distribution
system.membus.trans_dist::ReadExResp            10996                       # Transaction distribution
system.membus.trans_dist::ReadSharedReq          3651                       # Transaction distribution
system.membus.pkt_count_system.l3.mem_side::system.mem_ctrls.port        29297                       # Packet count per connected master and slave (bytes)
system.membus.pkt_count_system.l3.mem_side::total        29297                       # Packet count per connected master and slave (bytes)
system.membus.pkt_count::total                  29297                       # Packet count per connected master and slave (bytes)
system.membus.pkt_size_system.l3.mem_side::system.mem_ctrls.port       937408                       # Cumulative packet size per connected master and slave (bytes)
system.membus.pkt_size_system.l3.mem_side::total       937408                       # Cumulative packet size per connected master and slave (bytes)
system.membus.pkt_size::total                  937408                       # Cumulative packet size per connected master and slave (bytes)
system.membus.snoops                                0                       # Total snoops (count)
system.membus.snoopTraffic                          0                       # Total snoop traffic (bytes)
system.membus.snoop_fanout::samples             14650                       # Request fanout histogram
system.membus.snoop_fanout::mean                    0                       # Request fanout histogram
system.membus.snoop_fanout::stdev                   0                       # Request fanout histogram
system.membus.snoop_fanout::underflows              0      0.00%      0.00% # Request fanout histogram
system.membus.snoop_fanout::0                   14650    100.00%    100.00% # Request fanout histogram
system.membus.snoop_fanout::1                       0      0.00%    100.00% # Request fanout histogram
system.membus.snoop_fanout::overflows               0      0.00%    100.00% # Request fanout histogram
system.membus.snoop_fanout::min_value               0                       # Request fanout histogram
system.membus.snoop_fanout::max_value               0                       # Request fanout histogram
system.membus.snoop_fanout::total               14650                       # Request fanout histogram
system.membus.reqLayer8.occupancy            19390952                       # Layer occupancy (ticks)
system.membus.reqLayer8.utilization               9.2                       # Layer utilization (%)
system.membus.respLayer1.occupancy           78044976                       # Layer occupancy (ticks)
system.membus.respLayer1.utilization             36.9                       # Layer utilization (%)
system.tol3bus.snoop_filter.tot_requests        14911                       # Total number of requests made to the snoop filter.
system.tol3bus.snoop_filter.hit_single_requests          256                       # Number of requests hitting in the snoop filter with a single holder of the requested data.
system.tol3bus.snoop_filter.hit_multi_requests            0                       # Number of requests hitting in the snoop filter with multiple (>1) holders of the requested data.
system.tol3bus.snoop_filter.tot_snoops              0                       # Total number of snoops made to the snoop filter.
system.tol3bus.snoop_filter.hit_single_snoops            0                       # Number of snoops hitting in the snoop filter with a single holder of the requested data.
system.tol3bus.snoop_filter.hit_multi_snoops            0                       # Number of snoops hitting in the snoop filter with multiple (>1) holders of the requested data.
system.tol3bus.pwrStateResidencyTicks::UNDEFINED    211736052                       # Cumulative time (in ticks) in various power states
system.tol3bus.trans_dist::ReadResp              3655                       # Transaction distribution
system.tol3bus.trans_dist::WritebackDirty           38                       # Transaction distribution
system.tol3bus.trans_dist::CleanEvict             218                       # Transaction distribution
system.tol3bus.trans_dist::ReadExReq            11000                       # Transaction distribution
system.tol3bus.trans_dist::ReadExResp           10996                       # Transaction distribution
system.tol3bus.trans_dist::ReadSharedReq         3655                       # Transaction distribution
system.tol3bus.pkt_count_system.cpu0.l2cache.mem_side::system.l3.cpu_side         7462                       # Packet count per connected master and slave (bytes)
system.tol3bus.pkt_count_system.cpu1.l2cache.mem_side::system.l3.cpu_side         7475                       # Packet count per connected master and slave (bytes)
system.tol3bus.pkt_count_system.cpu2.l2cache.mem_side::system.l3.cpu_side         7345                       # Packet count per connected master and slave (bytes)
system.tol3bus.pkt_count_system.cpu3.l2cache.mem_side::system.l3.cpu_side         7280                       # Packet count per connected master and slave (bytes)
system.tol3bus.pkt_count::total                 29562                       # Packet count per connected master and slave (bytes)
system.tol3bus.pkt_size_system.cpu0.l2cache.mem_side::system.l3.cpu_side       237568                       # Cumulative packet size per connected master and slave (bytes)
system.tol3bus.pkt_size_system.cpu1.l2cache.mem_side::system.l3.cpu_side       237376                       # Cumulative packet size per connected master and slave (bytes)
system.tol3bus.pkt_size_system.cpu2.l2cache.mem_side::system.l3.cpu_side       233728                       # Cumulative packet size per connected master and slave (bytes)
system.tol3bus.pkt_size_system.cpu3.l2cache.mem_side::system.l3.cpu_side       231424                       # Cumulative packet size per connected master and slave (bytes)
system.tol3bus.pkt_size::total                 940096                       # Cumulative packet size per connected master and slave (bytes)
system.tol3bus.snoops                               0                       # Total snoops (count)
system.tol3bus.snoopTraffic                         0                       # Total snoop traffic (bytes)
system.tol3bus.snoop_fanout::samples            14655                       # Request fanout histogram
system.tol3bus.snoop_fanout::mean                   0                       # Request fanout histogram
system.tol3bus.snoop_fanout::stdev                  0                       # Request fanout histogram
system.tol3bus.snoop_fanout::underflows             0      0.00%      0.00% # Request fanout histogram
system.tol3bus.snoop_fanout::0                  14655    100.00%    100.00% # Request fanout histogram
system.tol3bus.snoop_fanout::1                      0      0.00%    100.00% # Request fanout histogram
system.tol3bus.snoop_fanout::2                      0      0.00%    100.00% # Request fanout histogram
system.tol3bus.snoop_fanout::3                      0      0.00%    100.00% # Request fanout histogram
system.tol3bus.snoop_fanout::4                      0      0.00%    100.00% # Request fanout histogram
system.tol3bus.snoop_fanout::overflows              0      0.00%    100.00% # Request fanout histogram
system.tol3bus.snoop_fanout::min_value              0                       # Request fanout histogram
system.tol3bus.snoop_fanout::max_value              0                       # Request fanout histogram
system.tol3bus.snoop_fanout::total              14655                       # Request fanout histogram
system.tol3bus.reqLayer0.occupancy           25159332                       # Layer occupancy (ticks)
system.tol3bus.reqLayer0.utilization             11.9                       # Layer utilization (%)
system.tol3bus.respLayer0.occupancy          11746391                       # Layer occupancy (ticks)
system.tol3bus.respLayer0.utilization             5.5                       # Layer utilization (%)
system.tol3bus.respLayer1.occupancy          11756616                       # Layer occupancy (ticks)
system.tol3bus.respLayer1.utilization             5.6                       # Layer utilization (%)
system.tol3bus.respLayer2.occupancy          11534965                       # Layer occupancy (ticks)
system.tol3bus.respLayer2.utilization             5.4                       # Layer utilization (%)
system.tol3bus.respLayer3.occupancy          11468788                       # Layer occupancy (ticks)
system.tol3bus.respLayer3.utilization             5.4                       # Layer utilization (%)

---------- End Simulation Statistics   ----------
