
---------- Begin Simulation Statistics ----------
sim_seconds                                  0.003491                       # Number of seconds simulated
sim_ticks                                  3490870635                       # Number of ticks simulated
final_tick                                 3490870635                       # Number of ticks from beginning of simulation (restored from checkpoints and never reset)
sim_freq                                 1000000000000                       # Frequency of simulated ticks
host_inst_rate                                 120689                       # Simulator instruction rate (inst/s)
host_op_rate                                   241888                       # Simulator op (including micro ops) rate (op/s)
host_tick_rate                               10553790                       # Simulator tick rate (ticks/s)
host_mem_usage                               33978984                       # Number of bytes of host memory used
host_seconds                                   330.77                       # Real time elapsed on the host
sim_insts                                    39920289                       # Number of instructions simulated
sim_ops                                      80009267                       # Number of ops (including micro ops) simulated
system.voltage_domain.voltage                       1                       # Voltage in Volts
system.clk_domain.clock                          1000                       # Clock period in ticks
system.mem_ctrls.pwrStateResidencyTicks::UNDEFINED   3490870635                       # Cumulative time (in ticks) in various power states
system.mem_ctrls.bytes_read::cpu0.inst         173952                       # Number of bytes read from this memory
system.mem_ctrls.bytes_read::cpu0.data         105664                       # Number of bytes read from this memory
system.mem_ctrls.bytes_read::cpu1.inst         174656                       # Number of bytes read from this memory
system.mem_ctrls.bytes_read::cpu1.data         106048                       # Number of bytes read from this memory
system.mem_ctrls.bytes_read::cpu2.inst         175040                       # Number of bytes read from this memory
system.mem_ctrls.bytes_read::cpu2.data         105920                       # Number of bytes read from this memory
system.mem_ctrls.bytes_read::cpu3.inst         174912                       # Number of bytes read from this memory
system.mem_ctrls.bytes_read::cpu3.data         105408                       # Number of bytes read from this memory
system.mem_ctrls.bytes_read::total            1121600                       # Number of bytes read from this memory
system.mem_ctrls.bytes_inst_read::cpu0.inst       173952                       # Number of instructions bytes read from this memory
system.mem_ctrls.bytes_inst_read::cpu1.inst       174656                       # Number of instructions bytes read from this memory
system.mem_ctrls.bytes_inst_read::cpu2.inst       175040                       # Number of instructions bytes read from this memory
system.mem_ctrls.bytes_inst_read::cpu3.inst       174912                       # Number of instructions bytes read from this memory
system.mem_ctrls.bytes_inst_read::total        698560                       # Number of instructions bytes read from this memory
system.mem_ctrls.num_reads::cpu0.inst            2718                       # Number of read requests responded to by this memory
system.mem_ctrls.num_reads::cpu0.data            1651                       # Number of read requests responded to by this memory
system.mem_ctrls.num_reads::cpu1.inst            2729                       # Number of read requests responded to by this memory
system.mem_ctrls.num_reads::cpu1.data            1657                       # Number of read requests responded to by this memory
system.mem_ctrls.num_reads::cpu2.inst            2735                       # Number of read requests responded to by this memory
system.mem_ctrls.num_reads::cpu2.data            1655                       # Number of read requests responded to by this memory
system.mem_ctrls.num_reads::cpu3.inst            2733                       # Number of read requests responded to by this memory
system.mem_ctrls.num_reads::cpu3.data            1647                       # Number of read requests responded to by this memory
system.mem_ctrls.num_reads::total               17525                       # Number of read requests responded to by this memory
system.mem_ctrls.bw_read::cpu0.inst          49830549                       # Total read bandwidth from this memory (bytes/s)
system.mem_ctrls.bw_read::cpu0.data          30268667                       # Total read bandwidth from this memory (bytes/s)
system.mem_ctrls.bw_read::cpu1.inst          50032218                       # Total read bandwidth from this memory (bytes/s)
system.mem_ctrls.bw_read::cpu1.data          30378668                       # Total read bandwidth from this memory (bytes/s)
system.mem_ctrls.bw_read::cpu2.inst          50142219                       # Total read bandwidth from this memory (bytes/s)
system.mem_ctrls.bw_read::cpu2.data          30342001                       # Total read bandwidth from this memory (bytes/s)
system.mem_ctrls.bw_read::cpu3.inst          50105552                       # Total read bandwidth from this memory (bytes/s)
system.mem_ctrls.bw_read::cpu3.data          30195333                       # Total read bandwidth from this memory (bytes/s)
system.mem_ctrls.bw_read::total             321295206                       # Total read bandwidth from this memory (bytes/s)
system.mem_ctrls.bw_inst_read::cpu0.inst     49830549                       # Instruction read bandwidth from this memory (bytes/s)
system.mem_ctrls.bw_inst_read::cpu1.inst     50032218                       # Instruction read bandwidth from this memory (bytes/s)
system.mem_ctrls.bw_inst_read::cpu2.inst     50142219                       # Instruction read bandwidth from this memory (bytes/s)
system.mem_ctrls.bw_inst_read::cpu3.inst     50105552                       # Instruction read bandwidth from this memory (bytes/s)
system.mem_ctrls.bw_inst_read::total        200110538                       # Instruction read bandwidth from this memory (bytes/s)
system.mem_ctrls.bw_total::cpu0.inst         49830549                       # Total bandwidth to/from this memory (bytes/s)
system.mem_ctrls.bw_total::cpu0.data         30268667                       # Total bandwidth to/from this memory (bytes/s)
system.mem_ctrls.bw_total::cpu1.inst         50032218                       # Total bandwidth to/from this memory (bytes/s)
system.mem_ctrls.bw_total::cpu1.data         30378668                       # Total bandwidth to/from this memory (bytes/s)
system.mem_ctrls.bw_total::cpu2.inst         50142219                       # Total bandwidth to/from this memory (bytes/s)
system.mem_ctrls.bw_total::cpu2.data         30342001                       # Total bandwidth to/from this memory (bytes/s)
system.mem_ctrls.bw_total::cpu3.inst         50105552                       # Total bandwidth to/from this memory (bytes/s)
system.mem_ctrls.bw_total::cpu3.data         30195333                       # Total bandwidth to/from this memory (bytes/s)
system.mem_ctrls.bw_total::total            321295206                       # Total bandwidth to/from this memory (bytes/s)
system.pwrStateResidencyTicks::UNDEFINED   3490870635                       # Cumulative time (in ticks) in various power states
system.cpu0.branchPred.lookups                5205140                       # Number of BP lookups
system.cpu0.branchPred.condPredicted          5205140                       # Number of conditional branches predicted
system.cpu0.branchPred.condIncorrect           442448                       # Number of conditional branches incorrect
system.cpu0.branchPred.BTBLookups             4573659                       # Number of BTB lookups
system.cpu0.branchPred.BTBHits                      0                       # Number of BTB hits
system.cpu0.branchPred.BTBCorrect                   0                       # Number of correct BTB predictions (this stat may not work properly.
system.cpu0.branchPred.BTBHitPct             0.000000                       # BTB Hit Percentage
system.cpu0.branchPred.usedRAS                 323608                       # Number of times the RAS was used to get a target.
system.cpu0.branchPred.RASInCorrect             66284                       # Number of incorrect RAS predictions.
system.cpu0.branchPred.indirectLookups        4573659                       # Number of indirect predictor lookups.
system.cpu0.branchPred.indirectHits           1583251                       # Number of indirect target hits.
system.cpu0.branchPred.indirectMisses         2990408                       # Number of indirect misses.
system.cpu0.branchPredindirectMispredicted       317906                       # Number of mispredicted indirect branches.
system.cpu_voltage_domain.voltage                   1                       # Voltage in Volts
system.cpu_clk_domain.clock                       333                       # Clock period in ticks
system.cpu0.dtb.walker.pwrStateResidencyTicks::UNDEFINED   3490870635                       # Cumulative time (in ticks) in various power states
system.cpu0.dtb.rdAccesses                    2503371                       # TLB accesses on read requests
system.cpu0.dtb.wrAccesses                    1339777                       # TLB accesses on write requests
system.cpu0.dtb.rdMisses                        39886                       # TLB misses on read requests
system.cpu0.dtb.wrMisses                        19574                       # TLB misses on write requests
system.cpu0.apic_clk_domain.clock                5328                       # Clock period in ticks
system.cpu0.interrupts.pwrStateResidencyTicks::UNDEFINED   3490870635                       # Cumulative time (in ticks) in various power states
system.cpu0.itb.walker.pwrStateResidencyTicks::UNDEFINED   3490870635                       # Cumulative time (in ticks) in various power states
system.cpu0.itb.rdAccesses                          0                       # TLB accesses on read requests
system.cpu0.itb.wrAccesses                    2114348                       # TLB accesses on write requests
system.cpu0.itb.rdMisses                            0                       # TLB misses on read requests
system.cpu0.itb.wrMisses                         2053                       # TLB misses on write requests
system.cpu0.workload.numSyscalls                   50                       # Number of system calls
system.cpu0.pwrStateResidencyTicks::ON     3490870635                       # Cumulative time (in ticks) in various power states
system.cpu0.numCycles                        10483096                       # number of cpu cycles simulated
system.cpu0.numWorkItemsStarted                     0                       # number of work items this cpu started
system.cpu0.numWorkItemsCompleted                   0                       # number of work items this cpu completed
system.cpu0.fetch.icacheStallCycles           3182835                       # Number of cycles fetch is stalled on an Icache miss
system.cpu0.fetch.Insts                      20046897                       # Number of instructions fetch has processed
system.cpu0.fetch.Branches                    5205140                       # Number of branches that fetch encountered
system.cpu0.fetch.predictedBranches           1906859                       # Number of branches that fetch has predicted taken
system.cpu0.fetch.Cycles                      6621378                       # Number of cycles fetch has run and was not squashing or blocked
system.cpu0.fetch.SquashCycles                 886484                       # Number of cycles fetch has spent squashing
system.cpu0.fetch.MiscStallCycles                 481                       # Number of cycles fetch has spent waiting on interrupts, or bad addresses, or out of MSHRs
system.cpu0.fetch.PendingTrapStallCycles         2845                       # Number of stall cycles due to pending traps
system.cpu0.fetch.PendingQuiesceStallCycles            7                       # Number of stall cycles due to pending quiesce instructions
system.cpu0.fetch.IcacheWaitRetryStallCycles          187                       # Number of stall cycles due to full MSHR
system.cpu0.fetch.CacheLines                  2113738                       # Number of cache lines fetched
system.cpu0.fetch.IcacheSquashes               136311                       # Number of outstanding Icache misses that were squashed
system.cpu0.fetch.rateDist::samples          10250975                       # Number of instructions fetched each cycle (Total)
system.cpu0.fetch.rateDist::mean             3.857173                       # Number of instructions fetched each cycle (Total)
system.cpu0.fetch.rateDist::stdev            3.571392                       # Number of instructions fetched each cycle (Total)
system.cpu0.fetch.rateDist::underflows              0      0.00%      0.00% # Number of instructions fetched each cycle (Total)
system.cpu0.fetch.rateDist::0                 4124174     40.23%     40.23% # Number of instructions fetched each cycle (Total)
system.cpu0.fetch.rateDist::1                  202218      1.97%     42.20% # Number of instructions fetched each cycle (Total)
system.cpu0.fetch.rateDist::2                  195160      1.90%     44.11% # Number of instructions fetched each cycle (Total)
system.cpu0.fetch.rateDist::3                  485291      4.73%     48.84% # Number of instructions fetched each cycle (Total)
system.cpu0.fetch.rateDist::4                  387025      3.78%     52.62% # Number of instructions fetched each cycle (Total)
system.cpu0.fetch.rateDist::5                  618842      6.04%     58.66% # Number of instructions fetched each cycle (Total)
system.cpu0.fetch.rateDist::6                  427153      4.17%     62.82% # Number of instructions fetched each cycle (Total)
system.cpu0.fetch.rateDist::7                  202752      1.98%     64.80% # Number of instructions fetched each cycle (Total)
system.cpu0.fetch.rateDist::8                 3608360     35.20%    100.00% # Number of instructions fetched each cycle (Total)
system.cpu0.fetch.rateDist::overflows               0      0.00%    100.00% # Number of instructions fetched each cycle (Total)
system.cpu0.fetch.rateDist::min_value               0                       # Number of instructions fetched each cycle (Total)
system.cpu0.fetch.rateDist::max_value               8                       # Number of instructions fetched each cycle (Total)
system.cpu0.fetch.rateDist::total            10250975                       # Number of instructions fetched each cycle (Total)
system.cpu0.fetch.branchRate                 0.496527                       # Number of branch fetches per cycle
system.cpu0.fetch.rate                       1.912307                       # Number of inst fetches per cycle
system.cpu0.decode.IdleCycles                 2719453                       # Number of cycles decode is idle
system.cpu0.decode.BlockedCycles              1631782                       # Number of cycles decode is blocked
system.cpu0.decode.RunCycles                  5084028                       # Number of cycles decode is running
system.cpu0.decode.UnblockCycles               372470                       # Number of cycles decode is unblocking
system.cpu0.decode.SquashCycles                443242                       # Number of cycles decode is squashing
system.cpu0.decode.DecodedInsts              36877785                       # Number of instructions handled by decode
system.cpu0.rename.SquashCycles                443242                       # Number of cycles rename is squashing
system.cpu0.rename.IdleCycles                 3018280                       # Number of cycles rename is idle
system.cpu0.rename.BlockCycles                1355930                       # Number of cycles rename is blocking
system.cpu0.rename.serializeStallCycles         31844                       # count of cycles rename stalled for serializing inst
system.cpu0.rename.RunCycles                  5119158                       # Number of cycles rename is running
system.cpu0.rename.UnblockCycles               282521                       # Number of cycles rename is unblocking
system.cpu0.rename.RenamedInsts              34824403                       # Number of instructions processed by rename
system.cpu0.rename.ROBFullEvents                 1094                       # Number of times rename has blocked due to ROB full
system.cpu0.rename.IQFullEvents                 74730                       # Number of times rename has blocked due to IQ full
system.cpu0.rename.LQFullEvents                   350                       # Number of times rename has blocked due to LQ full
system.cpu0.rename.SQFullEvents                177542                       # Number of times rename has blocked due to SQ full
system.cpu0.rename.RenamedOperands           40441738                       # Number of destination operands rename has renamed
system.cpu0.rename.RenameLookups             85413735                       # Number of register rename lookups that rename has made
system.cpu0.rename.int_rename_lookups        48610241                       # Number of integer rename lookups
system.cpu0.rename.fp_rename_lookups           442124                       # Number of floating rename lookups
system.cpu0.rename.CommittedMaps             24437813                       # Number of HB maps that are committed
system.cpu0.rename.UndoneMaps                16003853                       # Number of HB maps that are undone due to squashing
system.cpu0.rename.serializingInsts              4152                       # count of serializing insts renamed
system.cpu0.rename.tempSerializingInsts          4666                       # count of temporary serializing insts renamed
system.cpu0.rename.skidInsts                   530036                       # count of insts added to the skid buffer
system.cpu0.memDep0.insertedLoads             3145238                       # Number of loads inserted to the mem dependence unit.
system.cpu0.memDep0.insertedStores            1841361                       # Number of stores inserted to the mem dependence unit.
system.cpu0.memDep0.conflictingLoads            78729                       # Number of conflicting loads.
system.cpu0.memDep0.conflictingStores           55113                       # Number of conflicting stores.
system.cpu0.iq.iqInstsAdded                  30635956                       # Number of instructions added to the IQ (excludes non-spec)
system.cpu0.iq.iqNonSpecInstsAdded              65001                       # Number of non-speculative instructions added to the IQ
system.cpu0.iq.iqInstsIssued                 26970166                       # Number of instructions issued
system.cpu0.iq.iqSquashedInstsIssued           234656                       # Number of squashed instructions issued
system.cpu0.iq.iqSquashedInstsExamined       10716601                       # Number of squashed instructions iterated over during squash; mainly for profiling
system.cpu0.iq.iqSquashedOperandsExamined     15360308                       # Number of squashed operands that are examined and possibly removed from graph
system.cpu0.iq.iqSquashedNonSpecRemoved         46019                       # Number of squashed non-spec instructions that were removed
system.cpu0.iq.issued_per_cycle::samples     10250975                       # Number of insts issued each cycle
system.cpu0.iq.issued_per_cycle::mean        2.630985                       # Number of insts issued each cycle
system.cpu0.iq.issued_per_cycle::stdev       2.733067                       # Number of insts issued each cycle
system.cpu0.iq.issued_per_cycle::underflows            0      0.00%      0.00% # Number of insts issued each cycle
system.cpu0.iq.issued_per_cycle::0            4330628     42.25%     42.25% # Number of insts issued each cycle
system.cpu0.iq.issued_per_cycle::1             617923      6.03%     48.27% # Number of insts issued each cycle
system.cpu0.iq.issued_per_cycle::2             687745      6.71%     54.98% # Number of insts issued each cycle
system.cpu0.iq.issued_per_cycle::3             526025      5.13%     60.11% # Number of insts issued each cycle
system.cpu0.iq.issued_per_cycle::4             804590      7.85%     67.96% # Number of insts issued each cycle
system.cpu0.iq.issued_per_cycle::5             842059      8.21%     76.18% # Number of insts issued each cycle
system.cpu0.iq.issued_per_cycle::6            1351637     13.19%     89.36% # Number of insts issued each cycle
system.cpu0.iq.issued_per_cycle::7             862743      8.42%     97.78% # Number of insts issued each cycle
system.cpu0.iq.issued_per_cycle::8             227625      2.22%    100.00% # Number of insts issued each cycle
system.cpu0.iq.issued_per_cycle::overflows            0      0.00%    100.00% # Number of insts issued each cycle
system.cpu0.iq.issued_per_cycle::min_value            0                       # Number of insts issued each cycle
system.cpu0.iq.issued_per_cycle::max_value            8                       # Number of insts issued each cycle
system.cpu0.iq.issued_per_cycle::total       10250975                       # Number of insts issued each cycle
system.cpu0.iq.fu_full::No_OpClass                  0      0.00%      0.00% # attempts to use FU when none available
system.cpu0.iq.fu_full::IntAlu                1152761     94.17%     94.17% # attempts to use FU when none available
system.cpu0.iq.fu_full::IntMult                     0      0.00%     94.17% # attempts to use FU when none available
system.cpu0.iq.fu_full::IntDiv                      0      0.00%     94.17% # attempts to use FU when none available
system.cpu0.iq.fu_full::FloatAdd                  297      0.02%     94.20% # attempts to use FU when none available
system.cpu0.iq.fu_full::FloatCmp                    0      0.00%     94.20% # attempts to use FU when none available
system.cpu0.iq.fu_full::FloatCvt                    0      0.00%     94.20% # attempts to use FU when none available
system.cpu0.iq.fu_full::FloatMult                   0      0.00%     94.20% # attempts to use FU when none available
system.cpu0.iq.fu_full::FloatMultAcc                0      0.00%     94.20% # attempts to use FU when none available
system.cpu0.iq.fu_full::FloatDiv                    0      0.00%     94.20% # attempts to use FU when none available
system.cpu0.iq.fu_full::FloatMisc                   0      0.00%     94.20% # attempts to use FU when none available
system.cpu0.iq.fu_full::FloatSqrt                   0      0.00%     94.20% # attempts to use FU when none available
system.cpu0.iq.fu_full::SimdAdd                     0      0.00%     94.20% # attempts to use FU when none available
system.cpu0.iq.fu_full::SimdAddAcc                  0      0.00%     94.20% # attempts to use FU when none available
system.cpu0.iq.fu_full::SimdAlu                     0      0.00%     94.20% # attempts to use FU when none available
system.cpu0.iq.fu_full::SimdCmp                     0      0.00%     94.20% # attempts to use FU when none available
system.cpu0.iq.fu_full::SimdCvt                     0      0.00%     94.20% # attempts to use FU when none available
system.cpu0.iq.fu_full::SimdMisc                    0      0.00%     94.20% # attempts to use FU when none available
system.cpu0.iq.fu_full::SimdMult                    0      0.00%     94.20% # attempts to use FU when none available
system.cpu0.iq.fu_full::SimdMultAcc                 0      0.00%     94.20% # attempts to use FU when none available
system.cpu0.iq.fu_full::SimdShift                   0      0.00%     94.20% # attempts to use FU when none available
system.cpu0.iq.fu_full::SimdShiftAcc                0      0.00%     94.20% # attempts to use FU when none available
system.cpu0.iq.fu_full::SimdSqrt                    0      0.00%     94.20% # attempts to use FU when none available
system.cpu0.iq.fu_full::SimdFloatAdd                0      0.00%     94.20% # attempts to use FU when none available
system.cpu0.iq.fu_full::SimdFloatAlu                0      0.00%     94.20% # attempts to use FU when none available
system.cpu0.iq.fu_full::SimdFloatCmp                0      0.00%     94.20% # attempts to use FU when none available
system.cpu0.iq.fu_full::SimdFloatCvt                0      0.00%     94.20% # attempts to use FU when none available
system.cpu0.iq.fu_full::SimdFloatDiv                0      0.00%     94.20% # attempts to use FU when none available
system.cpu0.iq.fu_full::SimdFloatMisc               0      0.00%     94.20% # attempts to use FU when none available
system.cpu0.iq.fu_full::SimdFloatMult               0      0.00%     94.20% # attempts to use FU when none available
system.cpu0.iq.fu_full::SimdFloatMultAcc            0      0.00%     94.20% # attempts to use FU when none available
system.cpu0.iq.fu_full::SimdFloatSqrt               0      0.00%     94.20% # attempts to use FU when none available
system.cpu0.iq.fu_full::MemRead                 36522      2.98%     97.18% # attempts to use FU when none available
system.cpu0.iq.fu_full::MemWrite                11149      0.91%     98.09% # attempts to use FU when none available
system.cpu0.iq.fu_full::FloatMemRead              145      0.01%     98.11% # attempts to use FU when none available
system.cpu0.iq.fu_full::FloatMemWrite           23190      1.89%    100.00% # attempts to use FU when none available
system.cpu0.iq.fu_full::IprAccess                   0      0.00%    100.00% # attempts to use FU when none available
system.cpu0.iq.fu_full::InstPrefetch                0      0.00%    100.00% # attempts to use FU when none available
system.cpu0.iq.FU_type_0::No_OpClass           302849      1.12%      1.12% # Type of FU issued
system.cpu0.iq.FU_type_0::IntAlu             22425677     83.15%     84.27% # Type of FU issued
system.cpu0.iq.FU_type_0::IntMult                3837      0.01%     84.29% # Type of FU issued
system.cpu0.iq.FU_type_0::IntDiv                16006      0.06%     84.35% # Type of FU issued
system.cpu0.iq.FU_type_0::FloatAdd              82008      0.30%     84.65% # Type of FU issued
system.cpu0.iq.FU_type_0::FloatCmp                  0      0.00%     84.65% # Type of FU issued
system.cpu0.iq.FU_type_0::FloatCvt                  0      0.00%     84.65% # Type of FU issued
system.cpu0.iq.FU_type_0::FloatMult                 0      0.00%     84.65% # Type of FU issued
system.cpu0.iq.FU_type_0::FloatMultAcc              0      0.00%     84.65% # Type of FU issued
system.cpu0.iq.FU_type_0::FloatDiv                  0      0.00%     84.65% # Type of FU issued
system.cpu0.iq.FU_type_0::FloatMisc                 0      0.00%     84.65% # Type of FU issued
system.cpu0.iq.FU_type_0::FloatSqrt                 0      0.00%     84.65% # Type of FU issued
system.cpu0.iq.FU_type_0::SimdAdd                   0      0.00%     84.65% # Type of FU issued
system.cpu0.iq.FU_type_0::SimdAddAcc                0      0.00%     84.65% # Type of FU issued
system.cpu0.iq.FU_type_0::SimdAlu                   0      0.00%     84.65% # Type of FU issued
system.cpu0.iq.FU_type_0::SimdCmp                   0      0.00%     84.65% # Type of FU issued
system.cpu0.iq.FU_type_0::SimdCvt                   0      0.00%     84.65% # Type of FU issued
system.cpu0.iq.FU_type_0::SimdMisc                  0      0.00%     84.65% # Type of FU issued
system.cpu0.iq.FU_type_0::SimdMult                  0      0.00%     84.65% # Type of FU issued
system.cpu0.iq.FU_type_0::SimdMultAcc               0      0.00%     84.65% # Type of FU issued
system.cpu0.iq.FU_type_0::SimdShift                 0      0.00%     84.65% # Type of FU issued
system.cpu0.iq.FU_type_0::SimdShiftAcc              0      0.00%     84.65% # Type of FU issued
system.cpu0.iq.FU_type_0::SimdSqrt                  0      0.00%     84.65% # Type of FU issued
system.cpu0.iq.FU_type_0::SimdFloatAdd              0      0.00%     84.65% # Type of FU issued
system.cpu0.iq.FU_type_0::SimdFloatAlu              0      0.00%     84.65% # Type of FU issued
system.cpu0.iq.FU_type_0::SimdFloatCmp              0      0.00%     84.65% # Type of FU issued
system.cpu0.iq.FU_type_0::SimdFloatCvt              0      0.00%     84.65% # Type of FU issued
system.cpu0.iq.FU_type_0::SimdFloatDiv              0      0.00%     84.65% # Type of FU issued
system.cpu0.iq.FU_type_0::SimdFloatMisc             0      0.00%     84.65% # Type of FU issued
system.cpu0.iq.FU_type_0::SimdFloatMult             0      0.00%     84.65% # Type of FU issued
system.cpu0.iq.FU_type_0::SimdFloatMultAcc            0      0.00%     84.65% # Type of FU issued
system.cpu0.iq.FU_type_0::SimdFloatSqrt             0      0.00%     84.65% # Type of FU issued
system.cpu0.iq.FU_type_0::MemRead             2660144      9.86%     94.51% # Type of FU issued
system.cpu0.iq.FU_type_0::MemWrite            1266302      4.70%     99.21% # Type of FU issued
system.cpu0.iq.FU_type_0::FloatMemRead          34317      0.13%     99.34% # Type of FU issued
system.cpu0.iq.FU_type_0::FloatMemWrite        179026      0.66%    100.00% # Type of FU issued
system.cpu0.iq.FU_type_0::IprAccess                 0      0.00%    100.00% # Type of FU issued
system.cpu0.iq.FU_type_0::InstPrefetch              0      0.00%    100.00% # Type of FU issued
system.cpu0.iq.FU_type_0::total              26970166                       # Type of FU issued
system.cpu0.iq.rate                          2.572729                       # Inst issue rate
system.cpu0.iq.fu_busy_cnt                    1224064                       # FU busy when requested
system.cpu0.iq.fu_busy_rate                  0.045386                       # FU busy rate (busy events/executed inst)
system.cpu0.iq.int_inst_queue_reads          65003253                       # Number of integer instruction queue reads
system.cpu0.iq.int_inst_queue_writes         41021301                       # Number of integer instruction queue writes
system.cpu0.iq.int_inst_queue_wakeup_accesses     25140573                       # Number of integer instruction queue wakeup accesses
system.cpu0.iq.fp_inst_queue_reads             646774                       # Number of floating instruction queue reads
system.cpu0.iq.fp_inst_queue_writes            397051                       # Number of floating instruction queue writes
system.cpu0.iq.fp_inst_queue_wakeup_accesses       297549                       # Number of floating instruction queue wakeup accesses
system.cpu0.iq.vec_inst_queue_reads                 0                       # Number of vector instruction queue reads
system.cpu0.iq.vec_inst_queue_writes                0                       # Number of vector instruction queue writes
system.cpu0.iq.vec_inst_queue_wakeup_accesses            0                       # Number of vector instruction queue wakeup accesses
system.cpu0.iq.int_alu_accesses              27557343                       # Number of integer alu accesses
system.cpu0.iq.fp_alu_accesses                 334038                       # Number of floating point alu accesses
system.cpu0.iq.vec_alu_accesses                     0                       # Number of vector alu accesses
system.cpu0.iew.lsq.thread0.forwLoads           86898                       # Number of loads that had data forwarded from stores
system.cpu0.iew.lsq.thread0.invAddrLoads            0                       # Number of loads ignored due to an invalid address
system.cpu0.iew.lsq.thread0.squashedLoads      1262500                       # Number of loads squashed
system.cpu0.iew.lsq.thread0.ignoredResponses         3410                       # Number of memory responses ignored because the instruction is squashed
system.cpu0.iew.lsq.thread0.memOrderViolation          977                       # Number of memory ordering violations
system.cpu0.iew.lsq.thread0.squashedStores       754401                       # Number of stores squashed
system.cpu0.iew.lsq.thread0.invAddrSwpfs            0                       # Number of software prefetches ignored due to an invalid address
system.cpu0.iew.lsq.thread0.blockedLoads            0                       # Number of blocked loads due to partial load-store forwarding
system.cpu0.iew.lsq.thread0.rescheduledLoads          916                       # Number of loads that were rescheduled
system.cpu0.iew.lsq.thread0.cacheBlocked           54                       # Number of times an access to memory failed due to the cache being blocked
system.cpu0.iew.iewIdleCycles                       0                       # Number of cycles IEW is idle
system.cpu0.iew.iewSquashCycles                443242                       # Number of cycles IEW is squashing
system.cpu0.iew.iewBlockCycles                1284024                       # Number of cycles IEW is blocking
system.cpu0.iew.iewUnblockCycles                27249                       # Number of cycles IEW is unblocking
system.cpu0.iew.iewDispatchedInsts           30700957                       # Number of instructions dispatched to IQ
system.cpu0.iew.iewDispSquashedInsts            25664                       # Number of squashed instructions skipped by dispatch
system.cpu0.iew.iewDispLoadInsts              3145238                       # Number of dispatched load instructions
system.cpu0.iew.iewDispStoreInsts             1841361                       # Number of dispatched store instructions
system.cpu0.iew.iewDispNonSpecInsts             24273                       # Number of dispatched non-speculative instructions
system.cpu0.iew.iewIQFullEvents                  2167                       # Number of times the IQ has become full, causing a stall
system.cpu0.iew.iewLSQFullEvents                21631                       # Number of times the LSQ has become full, causing a stall
system.cpu0.iew.memOrderViolationEvents           977                       # Number of memory order violations
system.cpu0.iew.predictedTakenIncorrect        128570                       # Number of branches that were predicted taken incorrectly
system.cpu0.iew.predictedNotTakenIncorrect       481591                       # Number of branches that were predicted not taken incorrectly
system.cpu0.iew.branchMispredicts              610161                       # Number of branch mispredicts detected at execute
system.cpu0.iew.iewExecutedInsts             25842367                       # Number of executed instructions
system.cpu0.iew.iewExecLoadInsts              2499094                       # Number of load instructions executed
system.cpu0.iew.iewExecSquashedInsts          1127799                       # Number of squashed instructions skipped in execute
system.cpu0.iew.exec_swp                            0                       # number of swp insts executed
system.cpu0.iew.exec_nop                            0                       # number of nop insts executed
system.cpu0.iew.exec_refs                     3829200                       # number of memory reference insts executed
system.cpu0.iew.exec_branches                 3309268                       # Number of branches executed
system.cpu0.iew.exec_stores                   1330106                       # Number of stores executed
system.cpu0.iew.exec_rate                    2.465146                       # Inst execution rate
system.cpu0.iew.wb_sent                      25629150                       # cumulative count of insts sent to commit
system.cpu0.iew.wb_count                     25438122                       # cumulative count of insts written-back
system.cpu0.iew.wb_producers                 18583596                       # num instructions producing a value
system.cpu0.iew.wb_consumers                 28750574                       # num instructions consuming a value
system.cpu0.iew.wb_rate                      2.426585                       # insts written-back per cycle
system.cpu0.iew.wb_fanout                    0.646373                       # average fanout of values written-back
system.cpu0.commit.commitSquashedInsts       10717008                       # The number of squashed insts skipped by commit
system.cpu0.commit.commitNonSpecStalls          18982                       # The number of times commit has been forced to stall to communicate backwards
system.cpu0.commit.branchMispredicts           442666                       # The number of times a branch was mispredicted
system.cpu0.commit.committed_per_cycle::samples      8620791                       # Number of insts commited each cycle
system.cpu0.commit.committed_per_cycle::mean     2.318153                       # Number of insts commited each cycle
system.cpu0.commit.committed_per_cycle::stdev     2.919447                       # Number of insts commited each cycle
system.cpu0.commit.committed_per_cycle::underflows            0      0.00%      0.00% # Number of insts commited each cycle
system.cpu0.commit.committed_per_cycle::0      4073980     47.26%     47.26% # Number of insts commited each cycle
system.cpu0.commit.committed_per_cycle::1       875628     10.16%     57.41% # Number of insts commited each cycle
system.cpu0.commit.committed_per_cycle::2       472769      5.48%     62.90% # Number of insts commited each cycle
system.cpu0.commit.committed_per_cycle::3       815715      9.46%     72.36% # Number of insts commited each cycle
system.cpu0.commit.committed_per_cycle::4       356052      4.13%     76.49% # Number of insts commited each cycle
system.cpu0.commit.committed_per_cycle::5       454189      5.27%     81.76% # Number of insts commited each cycle
system.cpu0.commit.committed_per_cycle::6       194193      2.25%     84.01% # Number of insts commited each cycle
system.cpu0.commit.committed_per_cycle::7       170428      1.98%     85.99% # Number of insts commited each cycle
system.cpu0.commit.committed_per_cycle::8      1207837     14.01%    100.00% # Number of insts commited each cycle
system.cpu0.commit.committed_per_cycle::overflows            0      0.00%    100.00% # Number of insts commited each cycle
system.cpu0.commit.committed_per_cycle::min_value            0                       # Number of insts commited each cycle
system.cpu0.commit.committed_per_cycle::max_value            8                       # Number of insts commited each cycle
system.cpu0.commit.committed_per_cycle::total      8620791                       # Number of insts commited each cycle
system.cpu0.commit.committedInsts             9971446                       # Number of instructions committed
system.cpu0.commit.committedOps              19984314                       # Number of ops (including micro ops) committed
system.cpu0.commit.swp_count                        0                       # Number of s/w prefetches committed
system.cpu0.commit.refs                       2969695                       # Number of memory references committed
system.cpu0.commit.loads                      1882735                       # Number of loads committed
system.cpu0.commit.membars                      12000                       # Number of memory barriers committed
system.cpu0.commit.branches                   2810065                       # Number of branches committed
system.cpu0.commit.vec_insts                        0                       # Number of committed Vector instructions.
system.cpu0.commit.fp_insts                    286567                       # Number of committed floating point instructions.
system.cpu0.commit.int_insts                 19767706                       # Number of committed integer instructions.
system.cpu0.commit.function_calls              107327                       # Number of function calls committed.
system.cpu0.commit.op_class_0::No_OpClass       110488      0.55%      0.55% # Class of committed instruction
system.cpu0.commit.op_class_0::IntAlu        16807861     84.11%     84.66% # Class of committed instruction
system.cpu0.commit.op_class_0::IntMult           3633      0.02%     84.68% # Class of committed instruction
system.cpu0.commit.op_class_0::IntDiv           14211      0.07%     84.75% # Class of committed instruction
system.cpu0.commit.op_class_0::FloatAdd         78426      0.39%     85.14% # Class of committed instruction
system.cpu0.commit.op_class_0::FloatCmp             0      0.00%     85.14% # Class of committed instruction
system.cpu0.commit.op_class_0::FloatCvt             0      0.00%     85.14% # Class of committed instruction
system.cpu0.commit.op_class_0::FloatMult            0      0.00%     85.14% # Class of committed instruction
system.cpu0.commit.op_class_0::FloatMultAcc            0      0.00%     85.14% # Class of committed instruction
system.cpu0.commit.op_class_0::FloatDiv             0      0.00%     85.14% # Class of committed instruction
system.cpu0.commit.op_class_0::FloatMisc            0      0.00%     85.14% # Class of committed instruction
system.cpu0.commit.op_class_0::FloatSqrt            0      0.00%     85.14% # Class of committed instruction
system.cpu0.commit.op_class_0::SimdAdd              0      0.00%     85.14% # Class of committed instruction
system.cpu0.commit.op_class_0::SimdAddAcc            0      0.00%     85.14% # Class of committed instruction
system.cpu0.commit.op_class_0::SimdAlu              0      0.00%     85.14% # Class of committed instruction
system.cpu0.commit.op_class_0::SimdCmp              0      0.00%     85.14% # Class of committed instruction
system.cpu0.commit.op_class_0::SimdCvt              0      0.00%     85.14% # Class of committed instruction
system.cpu0.commit.op_class_0::SimdMisc             0      0.00%     85.14% # Class of committed instruction
system.cpu0.commit.op_class_0::SimdMult             0      0.00%     85.14% # Class of committed instruction
system.cpu0.commit.op_class_0::SimdMultAcc            0      0.00%     85.14% # Class of committed instruction
system.cpu0.commit.op_class_0::SimdShift            0      0.00%     85.14% # Class of committed instruction
system.cpu0.commit.op_class_0::SimdShiftAcc            0      0.00%     85.14% # Class of committed instruction
system.cpu0.commit.op_class_0::SimdSqrt             0      0.00%     85.14% # Class of committed instruction
system.cpu0.commit.op_class_0::SimdFloatAdd            0      0.00%     85.14% # Class of committed instruction
system.cpu0.commit.op_class_0::SimdFloatAlu            0      0.00%     85.14% # Class of committed instruction
system.cpu0.commit.op_class_0::SimdFloatCmp            0      0.00%     85.14% # Class of committed instruction
system.cpu0.commit.op_class_0::SimdFloatCvt            0      0.00%     85.14% # Class of committed instruction
system.cpu0.commit.op_class_0::SimdFloatDiv            0      0.00%     85.14% # Class of committed instruction
system.cpu0.commit.op_class_0::SimdFloatMisc            0      0.00%     85.14% # Class of committed instruction
system.cpu0.commit.op_class_0::SimdFloatMult            0      0.00%     85.14% # Class of committed instruction
system.cpu0.commit.op_class_0::SimdFloatMultAcc            0      0.00%     85.14% # Class of committed instruction
system.cpu0.commit.op_class_0::SimdFloatSqrt            0      0.00%     85.14% # Class of committed instruction
system.cpu0.commit.op_class_0::MemRead        1857603      9.30%     94.44% # Class of committed instruction
system.cpu0.commit.op_class_0::MemWrite        917963      4.59%     99.03% # Class of committed instruction
system.cpu0.commit.op_class_0::FloatMemRead        25132      0.13%     99.15% # Class of committed instruction
system.cpu0.commit.op_class_0::FloatMemWrite       168997      0.85%    100.00% # Class of committed instruction
system.cpu0.commit.op_class_0::IprAccess            0      0.00%    100.00% # Class of committed instruction
system.cpu0.commit.op_class_0::InstPrefetch            0      0.00%    100.00% # Class of committed instruction
system.cpu0.commit.op_class_0::total         19984314                       # Class of committed instruction
system.cpu0.commit.bw_lim_events              1207837                       # number cycles where commit BW limit reached
system.cpu0.rob.rob_reads                    38114276                       # The number of ROB reads
system.cpu0.rob.rob_writes                   63063107                       # The number of ROB writes
system.cpu0.timesIdled                           5320                       # Number of times that the entire CPU went into an idle state and unscheduled itself
system.cpu0.idleCycles                         232121                       # Total number of cycles that the CPU has spent unscheduled due to idling
system.cpu0.committedInsts                    9971446                       # Number of Instructions Simulated
system.cpu0.committedOps                     19984314                       # Number of Ops (including micro ops) Simulated
system.cpu0.cpi                              1.051312                       # CPI: Cycles Per Instruction
system.cpu0.cpi_total                        1.051312                       # CPI: Total CPI of All Threads
system.cpu0.ipc                              0.951193                       # IPC: Instructions Per Cycle
system.cpu0.ipc_total                        0.951193                       # IPC: Total IPC of All Threads
system.cpu0.int_regfile_reads                33840216                       # number of integer regfile reads
system.cpu0.int_regfile_writes               20637735                       # number of integer regfile writes
system.cpu0.fp_regfile_reads                   378442                       # number of floating regfile reads
system.cpu0.fp_regfile_writes                  117050                       # number of floating regfile writes
system.cpu0.cc_regfile_reads                 15742943                       # number of cc regfile reads
system.cpu0.cc_regfile_writes                 9817702                       # number of cc regfile writes
system.cpu0.misc_regfile_reads               10649436                       # number of misc regfile reads
system.cpu0.misc_regfile_writes                   930                       # number of misc regfile writes
system.cpu0.dcache.tags.pwrStateResidencyTicks::UNDEFINED   3490870635                       # Cumulative time (in ticks) in various power states
system.cpu0.dcache.tags.replacements             1899                       # number of replacements
system.cpu0.dcache.tags.tagsinuse          507.419992                       # Cycle average of tags in use
system.cpu0.dcache.tags.total_refs            3466457                       # Total number of references to valid blocks.
system.cpu0.dcache.tags.sampled_refs             2411                       # Sample count of references to valid blocks.
system.cpu0.dcache.tags.avg_refs          1437.767316                       # Average number of references to valid blocks.
system.cpu0.dcache.tags.warmup_cycle           150183                       # Cycle when the warmup percentage was hit.
system.cpu0.dcache.tags.occ_blocks::cpu0.data   507.419992                       # Average occupied blocks per requestor
system.cpu0.dcache.tags.occ_percent::cpu0.data     0.991055                       # Average percentage of cache occupancy
system.cpu0.dcache.tags.occ_percent::total     0.991055                       # Average percentage of cache occupancy
system.cpu0.dcache.tags.occ_task_id_blocks::1024          512                       # Occupied blocks per task id
system.cpu0.dcache.tags.age_task_id_blocks_1024::0            1                       # Occupied blocks per task id
system.cpu0.dcache.tags.age_task_id_blocks_1024::1            9                       # Occupied blocks per task id
system.cpu0.dcache.tags.age_task_id_blocks_1024::2           22                       # Occupied blocks per task id
system.cpu0.dcache.tags.age_task_id_blocks_1024::3          480                       # Occupied blocks per task id
system.cpu0.dcache.tags.occ_task_id_percent::1024            1                       # Percentage of cache occupancy per task id
system.cpu0.dcache.tags.tag_accesses         27767427                       # Number of tag accesses
system.cpu0.dcache.tags.data_accesses        27767427                       # Number of data accesses
system.cpu0.dcache.pwrStateResidencyTicks::UNDEFINED   3490870635                       # Cumulative time (in ticks) in various power states
system.cpu0.dcache.ReadReq_hits::cpu0.data      2372101                       # number of ReadReq hits
system.cpu0.dcache.ReadReq_hits::total        2372101                       # number of ReadReq hits
system.cpu0.dcache.WriteReq_hits::cpu0.data      1094355                       # number of WriteReq hits
system.cpu0.dcache.WriteReq_hits::total       1094355                       # number of WriteReq hits
system.cpu0.dcache.demand_hits::cpu0.data      3466456                       # number of demand (read+write) hits
system.cpu0.dcache.demand_hits::total         3466456                       # number of demand (read+write) hits
system.cpu0.dcache.overall_hits::cpu0.data      3466456                       # number of overall hits
system.cpu0.dcache.overall_hits::total        3466456                       # number of overall hits
system.cpu0.dcache.ReadReq_misses::cpu0.data         3464                       # number of ReadReq misses
system.cpu0.dcache.ReadReq_misses::total         3464                       # number of ReadReq misses
system.cpu0.dcache.WriteReq_misses::cpu0.data          707                       # number of WriteReq misses
system.cpu0.dcache.WriteReq_misses::total          707                       # number of WriteReq misses
system.cpu0.dcache.demand_misses::cpu0.data         4171                       # number of demand (read+write) misses
system.cpu0.dcache.demand_misses::total          4171                       # number of demand (read+write) misses
system.cpu0.dcache.overall_misses::cpu0.data         4171                       # number of overall misses
system.cpu0.dcache.overall_misses::total         4171                       # number of overall misses
system.cpu0.dcache.ReadReq_miss_latency::cpu0.data    166670163                       # number of ReadReq miss cycles
system.cpu0.dcache.ReadReq_miss_latency::total    166670163                       # number of ReadReq miss cycles
system.cpu0.dcache.WriteReq_miss_latency::cpu0.data     36629001                       # number of WriteReq miss cycles
system.cpu0.dcache.WriteReq_miss_latency::total     36629001                       # number of WriteReq miss cycles
system.cpu0.dcache.demand_miss_latency::cpu0.data    203299164                       # number of demand (read+write) miss cycles
system.cpu0.dcache.demand_miss_latency::total    203299164                       # number of demand (read+write) miss cycles
system.cpu0.dcache.overall_miss_latency::cpu0.data    203299164                       # number of overall miss cycles
system.cpu0.dcache.overall_miss_latency::total    203299164                       # number of overall miss cycles
system.cpu0.dcache.ReadReq_accesses::cpu0.data      2375565                       # number of ReadReq accesses(hits+misses)
system.cpu0.dcache.ReadReq_accesses::total      2375565                       # number of ReadReq accesses(hits+misses)
system.cpu0.dcache.WriteReq_accesses::cpu0.data      1095062                       # number of WriteReq accesses(hits+misses)
system.cpu0.dcache.WriteReq_accesses::total      1095062                       # number of WriteReq accesses(hits+misses)
system.cpu0.dcache.demand_accesses::cpu0.data      3470627                       # number of demand (read+write) accesses
system.cpu0.dcache.demand_accesses::total      3470627                       # number of demand (read+write) accesses
system.cpu0.dcache.overall_accesses::cpu0.data      3470627                       # number of overall (read+write) accesses
system.cpu0.dcache.overall_accesses::total      3470627                       # number of overall (read+write) accesses
system.cpu0.dcache.ReadReq_miss_rate::cpu0.data     0.001458                       # miss rate for ReadReq accesses
system.cpu0.dcache.ReadReq_miss_rate::total     0.001458                       # miss rate for ReadReq accesses
system.cpu0.dcache.WriteReq_miss_rate::cpu0.data     0.000646                       # miss rate for WriteReq accesses
system.cpu0.dcache.WriteReq_miss_rate::total     0.000646                       # miss rate for WriteReq accesses
system.cpu0.dcache.demand_miss_rate::cpu0.data     0.001202                       # miss rate for demand accesses
system.cpu0.dcache.demand_miss_rate::total     0.001202                       # miss rate for demand accesses
system.cpu0.dcache.overall_miss_rate::cpu0.data     0.001202                       # miss rate for overall accesses
system.cpu0.dcache.overall_miss_rate::total     0.001202                       # miss rate for overall accesses
system.cpu0.dcache.ReadReq_avg_miss_latency::cpu0.data 48114.943129                       # average ReadReq miss latency
system.cpu0.dcache.ReadReq_avg_miss_latency::total 48114.943129                       # average ReadReq miss latency
system.cpu0.dcache.WriteReq_avg_miss_latency::cpu0.data 51809.053748                       # average WriteReq miss latency
system.cpu0.dcache.WriteReq_avg_miss_latency::total 51809.053748                       # average WriteReq miss latency
system.cpu0.dcache.demand_avg_miss_latency::cpu0.data 48741.108607                       # average overall miss latency
system.cpu0.dcache.demand_avg_miss_latency::total 48741.108607                       # average overall miss latency
system.cpu0.dcache.overall_avg_miss_latency::cpu0.data 48741.108607                       # average overall miss latency
system.cpu0.dcache.overall_avg_miss_latency::total 48741.108607                       # average overall miss latency
system.cpu0.dcache.blocked_cycles::no_mshrs          902                       # number of cycles access was blocked
system.cpu0.dcache.blocked_cycles::no_targets            0                       # number of cycles access was blocked
system.cpu0.dcache.blocked::no_mshrs               14                       # number of cycles access was blocked
system.cpu0.dcache.blocked::no_targets              0                       # number of cycles access was blocked
system.cpu0.dcache.avg_blocked_cycles::no_mshrs    64.428571                       # average number of cycles each access was blocked
system.cpu0.dcache.avg_blocked_cycles::no_targets          nan                       # average number of cycles each access was blocked
system.cpu0.dcache.writebacks::writebacks          678                       # number of writebacks
system.cpu0.dcache.writebacks::total              678                       # number of writebacks
system.cpu0.dcache.ReadReq_mshr_hits::cpu0.data         1717                       # number of ReadReq MSHR hits
system.cpu0.dcache.ReadReq_mshr_hits::total         1717                       # number of ReadReq MSHR hits
system.cpu0.dcache.WriteReq_mshr_hits::cpu0.data           42                       # number of WriteReq MSHR hits
system.cpu0.dcache.WriteReq_mshr_hits::total           42                       # number of WriteReq MSHR hits
system.cpu0.dcache.demand_mshr_hits::cpu0.data         1759                       # number of demand (read+write) MSHR hits
system.cpu0.dcache.demand_mshr_hits::total         1759                       # number of demand (read+write) MSHR hits
system.cpu0.dcache.overall_mshr_hits::cpu0.data         1759                       # number of overall MSHR hits
system.cpu0.dcache.overall_mshr_hits::total         1759                       # number of overall MSHR hits
system.cpu0.dcache.ReadReq_mshr_misses::cpu0.data         1747                       # number of ReadReq MSHR misses
system.cpu0.dcache.ReadReq_mshr_misses::total         1747                       # number of ReadReq MSHR misses
system.cpu0.dcache.WriteReq_mshr_misses::cpu0.data          665                       # number of WriteReq MSHR misses
system.cpu0.dcache.WriteReq_mshr_misses::total          665                       # number of WriteReq MSHR misses
system.cpu0.dcache.demand_mshr_misses::cpu0.data         2412                       # number of demand (read+write) MSHR misses
system.cpu0.dcache.demand_mshr_misses::total         2412                       # number of demand (read+write) MSHR misses
system.cpu0.dcache.overall_mshr_misses::cpu0.data         2412                       # number of overall MSHR misses
system.cpu0.dcache.overall_mshr_misses::total         2412                       # number of overall MSHR misses
system.cpu0.dcache.ReadReq_mshr_miss_latency::cpu0.data     75552372                       # number of ReadReq MSHR miss cycles
system.cpu0.dcache.ReadReq_mshr_miss_latency::total     75552372                       # number of ReadReq MSHR miss cycles
system.cpu0.dcache.WriteReq_mshr_miss_latency::cpu0.data     35839791                       # number of WriteReq MSHR miss cycles
system.cpu0.dcache.WriteReq_mshr_miss_latency::total     35839791                       # number of WriteReq MSHR miss cycles
system.cpu0.dcache.demand_mshr_miss_latency::cpu0.data    111392163                       # number of demand (read+write) MSHR miss cycles
system.cpu0.dcache.demand_mshr_miss_latency::total    111392163                       # number of demand (read+write) MSHR miss cycles
system.cpu0.dcache.overall_mshr_miss_latency::cpu0.data    111392163                       # number of overall MSHR miss cycles
system.cpu0.dcache.overall_mshr_miss_latency::total    111392163                       # number of overall MSHR miss cycles
system.cpu0.dcache.ReadReq_mshr_miss_rate::cpu0.data     0.000735                       # mshr miss rate for ReadReq accesses
system.cpu0.dcache.ReadReq_mshr_miss_rate::total     0.000735                       # mshr miss rate for ReadReq accesses
system.cpu0.dcache.WriteReq_mshr_miss_rate::cpu0.data     0.000607                       # mshr miss rate for WriteReq accesses
system.cpu0.dcache.WriteReq_mshr_miss_rate::total     0.000607                       # mshr miss rate for WriteReq accesses
system.cpu0.dcache.demand_mshr_miss_rate::cpu0.data     0.000695                       # mshr miss rate for demand accesses
system.cpu0.dcache.demand_mshr_miss_rate::total     0.000695                       # mshr miss rate for demand accesses
system.cpu0.dcache.overall_mshr_miss_rate::cpu0.data     0.000695                       # mshr miss rate for overall accesses
system.cpu0.dcache.overall_mshr_miss_rate::total     0.000695                       # mshr miss rate for overall accesses
system.cpu0.dcache.ReadReq_avg_mshr_miss_latency::cpu0.data 43246.921580                       # average ReadReq mshr miss latency
system.cpu0.dcache.ReadReq_avg_mshr_miss_latency::total 43246.921580                       # average ReadReq mshr miss latency
system.cpu0.dcache.WriteReq_avg_mshr_miss_latency::cpu0.data 53894.422556                       # average WriteReq mshr miss latency
system.cpu0.dcache.WriteReq_avg_mshr_miss_latency::total 53894.422556                       # average WriteReq mshr miss latency
system.cpu0.dcache.demand_avg_mshr_miss_latency::cpu0.data 46182.488806                       # average overall mshr miss latency
system.cpu0.dcache.demand_avg_mshr_miss_latency::total 46182.488806                       # average overall mshr miss latency
system.cpu0.dcache.overall_avg_mshr_miss_latency::cpu0.data 46182.488806                       # average overall mshr miss latency
system.cpu0.dcache.overall_avg_mshr_miss_latency::total 46182.488806                       # average overall mshr miss latency
system.cpu0.dtb_walker_cache.tags.pwrStateResidencyTicks::UNDEFINED   3490870635                       # Cumulative time (in ticks) in various power states
system.cpu0.dtb_walker_cache.tags.replacements            0                       # number of replacements
system.cpu0.dtb_walker_cache.tags.tagsinuse            0                       # Cycle average of tags in use
system.cpu0.dtb_walker_cache.tags.total_refs            0                       # Total number of references to valid blocks.
system.cpu0.dtb_walker_cache.tags.sampled_refs            0                       # Sample count of references to valid blocks.
system.cpu0.dtb_walker_cache.tags.avg_refs          nan                       # Average number of references to valid blocks.
system.cpu0.dtb_walker_cache.tags.warmup_cycle            0                       # Cycle when the warmup percentage was hit.
system.cpu0.dtb_walker_cache.tags.tag_accesses            0                       # Number of tag accesses
system.cpu0.dtb_walker_cache.tags.data_accesses            0                       # Number of data accesses
system.cpu0.dtb_walker_cache.pwrStateResidencyTicks::UNDEFINED   3490870635                       # Cumulative time (in ticks) in various power states
system.cpu0.dtb_walker_cache.blocked_cycles::no_mshrs            0                       # number of cycles access was blocked
system.cpu0.dtb_walker_cache.blocked_cycles::no_targets            0                       # number of cycles access was blocked
system.cpu0.dtb_walker_cache.blocked::no_mshrs            0                       # number of cycles access was blocked
system.cpu0.dtb_walker_cache.blocked::no_targets            0                       # number of cycles access was blocked
system.cpu0.dtb_walker_cache.avg_blocked_cycles::no_mshrs          nan                       # average number of cycles each access was blocked
system.cpu0.dtb_walker_cache.avg_blocked_cycles::no_targets          nan                       # average number of cycles each access was blocked
system.cpu0.icache.tags.pwrStateResidencyTicks::UNDEFINED   3490870635                       # Cumulative time (in ticks) in various power states
system.cpu0.icache.tags.replacements            91995                       # number of replacements
system.cpu0.icache.tags.tagsinuse          509.008040                       # Cycle average of tags in use
system.cpu0.icache.tags.total_refs            2015430                       # Total number of references to valid blocks.
system.cpu0.icache.tags.sampled_refs            92507                       # Sample count of references to valid blocks.
system.cpu0.icache.tags.avg_refs            21.786784                       # Average number of references to valid blocks.
system.cpu0.icache.tags.warmup_cycle            76257                       # Cycle when the warmup percentage was hit.
system.cpu0.icache.tags.occ_blocks::cpu0.inst   509.008040                       # Average occupied blocks per requestor
system.cpu0.icache.tags.occ_percent::cpu0.inst     0.994156                       # Average percentage of cache occupancy
system.cpu0.icache.tags.occ_percent::total     0.994156                       # Average percentage of cache occupancy
system.cpu0.icache.tags.occ_task_id_blocks::1024          512                       # Occupied blocks per task id
system.cpu0.icache.tags.age_task_id_blocks_1024::0          360                       # Occupied blocks per task id
system.cpu0.icache.tags.age_task_id_blocks_1024::1           98                       # Occupied blocks per task id
system.cpu0.icache.tags.age_task_id_blocks_1024::2           24                       # Occupied blocks per task id
system.cpu0.icache.tags.age_task_id_blocks_1024::3           30                       # Occupied blocks per task id
system.cpu0.icache.tags.occ_task_id_percent::1024            1                       # Percentage of cache occupancy per task id
system.cpu0.icache.tags.tag_accesses         17002388                       # Number of tag accesses
system.cpu0.icache.tags.data_accesses        17002388                       # Number of data accesses
system.cpu0.icache.pwrStateResidencyTicks::UNDEFINED   3490870635                       # Cumulative time (in ticks) in various power states
system.cpu0.icache.ReadReq_hits::cpu0.inst      2015430                       # number of ReadReq hits
system.cpu0.icache.ReadReq_hits::total        2015430                       # number of ReadReq hits
system.cpu0.icache.demand_hits::cpu0.inst      2015430                       # number of demand (read+write) hits
system.cpu0.icache.demand_hits::total         2015430                       # number of demand (read+write) hits
system.cpu0.icache.overall_hits::cpu0.inst      2015430                       # number of overall hits
system.cpu0.icache.overall_hits::total        2015430                       # number of overall hits
system.cpu0.icache.ReadReq_misses::cpu0.inst        98305                       # number of ReadReq misses
system.cpu0.icache.ReadReq_misses::total        98305                       # number of ReadReq misses
system.cpu0.icache.demand_misses::cpu0.inst        98305                       # number of demand (read+write) misses
system.cpu0.icache.demand_misses::total         98305                       # number of demand (read+write) misses
system.cpu0.icache.overall_misses::cpu0.inst        98305                       # number of overall misses
system.cpu0.icache.overall_misses::total        98305                       # number of overall misses
system.cpu0.icache.ReadReq_miss_latency::cpu0.inst    648839839                       # number of ReadReq miss cycles
system.cpu0.icache.ReadReq_miss_latency::total    648839839                       # number of ReadReq miss cycles
system.cpu0.icache.demand_miss_latency::cpu0.inst    648839839                       # number of demand (read+write) miss cycles
system.cpu0.icache.demand_miss_latency::total    648839839                       # number of demand (read+write) miss cycles
system.cpu0.icache.overall_miss_latency::cpu0.inst    648839839                       # number of overall miss cycles
system.cpu0.icache.overall_miss_latency::total    648839839                       # number of overall miss cycles
system.cpu0.icache.ReadReq_accesses::cpu0.inst      2113735                       # number of ReadReq accesses(hits+misses)
system.cpu0.icache.ReadReq_accesses::total      2113735                       # number of ReadReq accesses(hits+misses)
system.cpu0.icache.demand_accesses::cpu0.inst      2113735                       # number of demand (read+write) accesses
system.cpu0.icache.demand_accesses::total      2113735                       # number of demand (read+write) accesses
system.cpu0.icache.overall_accesses::cpu0.inst      2113735                       # number of overall (read+write) accesses
system.cpu0.icache.overall_accesses::total      2113735                       # number of overall (read+write) accesses
system.cpu0.icache.ReadReq_miss_rate::cpu0.inst     0.046508                       # miss rate for ReadReq accesses
system.cpu0.icache.ReadReq_miss_rate::total     0.046508                       # miss rate for ReadReq accesses
system.cpu0.icache.demand_miss_rate::cpu0.inst     0.046508                       # miss rate for demand accesses
system.cpu0.icache.demand_miss_rate::total     0.046508                       # miss rate for demand accesses
system.cpu0.icache.overall_miss_rate::cpu0.inst     0.046508                       # miss rate for overall accesses
system.cpu0.icache.overall_miss_rate::total     0.046508                       # miss rate for overall accesses
system.cpu0.icache.ReadReq_avg_miss_latency::cpu0.inst  6600.273018                       # average ReadReq miss latency
system.cpu0.icache.ReadReq_avg_miss_latency::total  6600.273018                       # average ReadReq miss latency
system.cpu0.icache.demand_avg_miss_latency::cpu0.inst  6600.273018                       # average overall miss latency
system.cpu0.icache.demand_avg_miss_latency::total  6600.273018                       # average overall miss latency
system.cpu0.icache.overall_avg_miss_latency::cpu0.inst  6600.273018                       # average overall miss latency
system.cpu0.icache.overall_avg_miss_latency::total  6600.273018                       # average overall miss latency
system.cpu0.icache.blocked_cycles::no_mshrs         2488                       # number of cycles access was blocked
system.cpu0.icache.blocked_cycles::no_targets            0                       # number of cycles access was blocked
system.cpu0.icache.blocked::no_mshrs               63                       # number of cycles access was blocked
system.cpu0.icache.blocked::no_targets              0                       # number of cycles access was blocked
system.cpu0.icache.avg_blocked_cycles::no_mshrs    39.492063                       # average number of cycles each access was blocked
system.cpu0.icache.avg_blocked_cycles::no_targets          nan                       # average number of cycles each access was blocked
system.cpu0.icache.writebacks::writebacks        91995                       # number of writebacks
system.cpu0.icache.writebacks::total            91995                       # number of writebacks
system.cpu0.icache.ReadReq_mshr_hits::cpu0.inst         5797                       # number of ReadReq MSHR hits
system.cpu0.icache.ReadReq_mshr_hits::total         5797                       # number of ReadReq MSHR hits
system.cpu0.icache.demand_mshr_hits::cpu0.inst         5797                       # number of demand (read+write) MSHR hits
system.cpu0.icache.demand_mshr_hits::total         5797                       # number of demand (read+write) MSHR hits
system.cpu0.icache.overall_mshr_hits::cpu0.inst         5797                       # number of overall MSHR hits
system.cpu0.icache.overall_mshr_hits::total         5797                       # number of overall MSHR hits
system.cpu0.icache.ReadReq_mshr_misses::cpu0.inst        92508                       # number of ReadReq MSHR misses
system.cpu0.icache.ReadReq_mshr_misses::total        92508                       # number of ReadReq MSHR misses
system.cpu0.icache.demand_mshr_misses::cpu0.inst        92508                       # number of demand (read+write) MSHR misses
system.cpu0.icache.demand_mshr_misses::total        92508                       # number of demand (read+write) MSHR misses
system.cpu0.icache.overall_mshr_misses::cpu0.inst        92508                       # number of overall MSHR misses
system.cpu0.icache.overall_mshr_misses::total        92508                       # number of overall MSHR misses
system.cpu0.icache.ReadReq_mshr_miss_latency::cpu0.inst    541098356                       # number of ReadReq MSHR miss cycles
system.cpu0.icache.ReadReq_mshr_miss_latency::total    541098356                       # number of ReadReq MSHR miss cycles
system.cpu0.icache.demand_mshr_miss_latency::cpu0.inst    541098356                       # number of demand (read+write) MSHR miss cycles
system.cpu0.icache.demand_mshr_miss_latency::total    541098356                       # number of demand (read+write) MSHR miss cycles
system.cpu0.icache.overall_mshr_miss_latency::cpu0.inst    541098356                       # number of overall MSHR miss cycles
system.cpu0.icache.overall_mshr_miss_latency::total    541098356                       # number of overall MSHR miss cycles
system.cpu0.icache.ReadReq_mshr_miss_rate::cpu0.inst     0.043765                       # mshr miss rate for ReadReq accesses
system.cpu0.icache.ReadReq_mshr_miss_rate::total     0.043765                       # mshr miss rate for ReadReq accesses
system.cpu0.icache.demand_mshr_miss_rate::cpu0.inst     0.043765                       # mshr miss rate for demand accesses
system.cpu0.icache.demand_mshr_miss_rate::total     0.043765                       # mshr miss rate for demand accesses
system.cpu0.icache.overall_mshr_miss_rate::cpu0.inst     0.043765                       # mshr miss rate for overall accesses
system.cpu0.icache.overall_mshr_miss_rate::total     0.043765                       # mshr miss rate for overall accesses
system.cpu0.icache.ReadReq_avg_mshr_miss_latency::cpu0.inst  5849.206079                       # average ReadReq mshr miss latency
system.cpu0.icache.ReadReq_avg_mshr_miss_latency::total  5849.206079                       # average ReadReq mshr miss latency
system.cpu0.icache.demand_avg_mshr_miss_latency::cpu0.inst  5849.206079                       # average overall mshr miss latency
system.cpu0.icache.demand_avg_mshr_miss_latency::total  5849.206079                       # average overall mshr miss latency
system.cpu0.icache.overall_avg_mshr_miss_latency::cpu0.inst  5849.206079                       # average overall mshr miss latency
system.cpu0.icache.overall_avg_mshr_miss_latency::total  5849.206079                       # average overall mshr miss latency
system.cpu0.itb_walker_cache.tags.pwrStateResidencyTicks::UNDEFINED   3490870635                       # Cumulative time (in ticks) in various power states
system.cpu0.itb_walker_cache.tags.replacements            0                       # number of replacements
system.cpu0.itb_walker_cache.tags.tagsinuse            0                       # Cycle average of tags in use
system.cpu0.itb_walker_cache.tags.total_refs            0                       # Total number of references to valid blocks.
system.cpu0.itb_walker_cache.tags.sampled_refs            0                       # Sample count of references to valid blocks.
system.cpu0.itb_walker_cache.tags.avg_refs          nan                       # Average number of references to valid blocks.
system.cpu0.itb_walker_cache.tags.warmup_cycle            0                       # Cycle when the warmup percentage was hit.
system.cpu0.itb_walker_cache.tags.tag_accesses            0                       # Number of tag accesses
system.cpu0.itb_walker_cache.tags.data_accesses            0                       # Number of data accesses
system.cpu0.itb_walker_cache.pwrStateResidencyTicks::UNDEFINED   3490870635                       # Cumulative time (in ticks) in various power states
system.cpu0.itb_walker_cache.blocked_cycles::no_mshrs            0                       # number of cycles access was blocked
system.cpu0.itb_walker_cache.blocked_cycles::no_targets            0                       # number of cycles access was blocked
system.cpu0.itb_walker_cache.blocked::no_mshrs            0                       # number of cycles access was blocked
system.cpu0.itb_walker_cache.blocked::no_targets            0                       # number of cycles access was blocked
system.cpu0.itb_walker_cache.avg_blocked_cycles::no_mshrs          nan                       # average number of cycles each access was blocked
system.cpu0.itb_walker_cache.avg_blocked_cycles::no_targets          nan                       # average number of cycles each access was blocked
system.cpu0.l2cache.tags.pwrStateResidencyTicks::UNDEFINED   3490870635                       # Cumulative time (in ticks) in various power states
system.cpu0.l2cache.tags.replacements            1143                       # number of replacements
system.cpu0.l2cache.tags.tagsinuse        3286.972894                       # Cycle average of tags in use
system.cpu0.l2cache.tags.total_refs            183735                       # Total number of references to valid blocks.
system.cpu0.l2cache.tags.sampled_refs            4611                       # Sample count of references to valid blocks.
system.cpu0.l2cache.tags.avg_refs           39.847105                       # Average number of references to valid blocks.
system.cpu0.l2cache.tags.warmup_cycle           73000                       # Cycle when the warmup percentage was hit.
system.cpu0.l2cache.tags.occ_blocks::writebacks    86.874759                       # Average occupied blocks per requestor
system.cpu0.l2cache.tags.occ_blocks::cpu0.inst  1972.324597                       # Average occupied blocks per requestor
system.cpu0.l2cache.tags.occ_blocks::cpu0.data  1227.773538                       # Average occupied blocks per requestor
system.cpu0.l2cache.tags.occ_percent::writebacks     0.021210                       # Average percentage of cache occupancy
system.cpu0.l2cache.tags.occ_percent::cpu0.inst     0.481525                       # Average percentage of cache occupancy
system.cpu0.l2cache.tags.occ_percent::cpu0.data     0.299749                       # Average percentage of cache occupancy
system.cpu0.l2cache.tags.occ_percent::total     0.802484                       # Average percentage of cache occupancy
system.cpu0.l2cache.tags.occ_task_id_blocks::1024         3468                       # Occupied blocks per task id
system.cpu0.l2cache.tags.age_task_id_blocks_1024::1            3                       # Occupied blocks per task id
system.cpu0.l2cache.tags.age_task_id_blocks_1024::2           29                       # Occupied blocks per task id
system.cpu0.l2cache.tags.age_task_id_blocks_1024::3         3436                       # Occupied blocks per task id
system.cpu0.l2cache.tags.occ_task_id_percent::1024     0.846680                       # Percentage of cache occupancy per task id
system.cpu0.l2cache.tags.tag_accesses          758239                       # Number of tag accesses
system.cpu0.l2cache.tags.data_accesses         758239                       # Number of data accesses
system.cpu0.l2cache.pwrStateResidencyTicks::UNDEFINED   3490870635                       # Cumulative time (in ticks) in various power states
system.cpu0.l2cache.WritebackDirty_hits::writebacks          678                       # number of WritebackDirty hits
system.cpu0.l2cache.WritebackDirty_hits::total          678                       # number of WritebackDirty hits
system.cpu0.l2cache.WritebackClean_hits::writebacks        91594                       # number of WritebackClean hits
system.cpu0.l2cache.WritebackClean_hits::total        91594                       # number of WritebackClean hits
system.cpu0.l2cache.UpgradeReq_hits::cpu0.data            1                       # number of UpgradeReq hits
system.cpu0.l2cache.UpgradeReq_hits::total            1                       # number of UpgradeReq hits
system.cpu0.l2cache.ReadExReq_hits::cpu0.data          114                       # number of ReadExReq hits
system.cpu0.l2cache.ReadExReq_hits::total          114                       # number of ReadExReq hits
system.cpu0.l2cache.ReadCleanReq_hits::cpu0.inst        89717                       # number of ReadCleanReq hits
system.cpu0.l2cache.ReadCleanReq_hits::total        89717                       # number of ReadCleanReq hits
system.cpu0.l2cache.ReadSharedReq_hits::cpu0.data          623                       # number of ReadSharedReq hits
system.cpu0.l2cache.ReadSharedReq_hits::total          623                       # number of ReadSharedReq hits
system.cpu0.l2cache.demand_hits::cpu0.inst        89717                       # number of demand (read+write) hits
system.cpu0.l2cache.demand_hits::cpu0.data          737                       # number of demand (read+write) hits
system.cpu0.l2cache.demand_hits::total          90454                       # number of demand (read+write) hits
system.cpu0.l2cache.overall_hits::cpu0.inst        89717                       # number of overall hits
system.cpu0.l2cache.overall_hits::cpu0.data          737                       # number of overall hits
system.cpu0.l2cache.overall_hits::total         90454                       # number of overall hits
system.cpu0.l2cache.ReadExReq_misses::cpu0.data          550                       # number of ReadExReq misses
[...]
system.l3.demand_mshr_miss_latency::cpu0.data     83391617                       # number of demand (read+write) MSHR miss cycles
system.l3.demand_mshr_miss_latency::cpu1.inst    139228254                       # number of demand (read+write) MSHR miss cycles
system.l3.demand_mshr_miss_latency::cpu1.data     82541269                       # number of demand (read+write) MSHR miss cycles
system.l3.demand_mshr_miss_latency::cpu2.inst    141207944                       # number of demand (read+write) MSHR miss cycles
system.l3.demand_mshr_miss_latency::cpu2.data     83043354                       # number of demand (read+write) MSHR miss cycles
system.l3.demand_mshr_miss_latency::cpu3.inst    138486178                       # number of demand (read+write) MSHR miss cycles
system.l3.demand_mshr_miss_latency::cpu3.data     82173628                       # number of demand (read+write) MSHR miss cycles
system.l3.demand_mshr_miss_latency::total    888462993                       # number of demand (read+write) MSHR miss cycles
system.l3.overall_mshr_miss_latency::cpu0.inst    138390749                       # number of overall MSHR miss cycles
system.l3.overall_mshr_miss_latency::cpu0.data     83391617                       # number of overall MSHR miss cycles
system.l3.overall_mshr_miss_latency::cpu1.inst    139228254                       # number of overall MSHR miss cycles
system.l3.overall_mshr_miss_latency::cpu1.data     82541269                       # number of overall MSHR miss cycles
system.l3.overall_mshr_miss_latency::cpu2.inst    141207944                       # number of overall MSHR miss cycles
system.l3.overall_mshr_miss_latency::cpu2.data     83043354                       # number of overall MSHR miss cycles
system.l3.overall_mshr_miss_latency::cpu3.inst    138486178                       # number of overall MSHR miss cycles
system.l3.overall_mshr_miss_latency::cpu3.data     82173628                       # number of overall MSHR miss cycles
system.l3.overall_mshr_miss_latency::total    888462993                       # number of overall MSHR miss cycles
system.l3.ReadExReq_mshr_miss_rate::cpu0.data     0.998182                       # mshr miss rate for ReadExReq accesses
system.l3.ReadExReq_mshr_miss_rate::cpu1.data     0.996364                       # mshr miss rate for ReadExReq accesses
system.l3.ReadExReq_mshr_miss_rate::cpu2.data     0.990975                       # mshr miss rate for ReadExReq accesses
system.l3.ReadExReq_mshr_miss_rate::cpu3.data     0.994495                       # mshr miss rate for ReadExReq accesses
system.l3.ReadExReq_mshr_miss_rate::total     0.994998                       # mshr miss rate for ReadExReq accesses
system.l3.ReadSharedReq_mshr_miss_rate::cpu0.inst     0.974543                       # mshr miss rate for ReadSharedReq accesses
system.l3.ReadSharedReq_mshr_miss_rate::cpu0.data     0.980427                       # mshr miss rate for ReadSharedReq accesses
system.l3.ReadSharedReq_mshr_miss_rate::cpu1.inst     0.973600                       # mshr miss rate for ReadSharedReq accesses
system.l3.ReadSharedReq_mshr_miss_rate::cpu1.data     0.979682                       # mshr miss rate for ReadSharedReq accesses
system.l3.ReadSharedReq_mshr_miss_rate::cpu2.inst     0.976437                       # mshr miss rate for ReadSharedReq accesses
system.l3.ReadSharedReq_mshr_miss_rate::cpu2.data     0.977896                       # mshr miss rate for ReadSharedReq accesses
system.l3.ReadSharedReq_mshr_miss_rate::cpu3.inst     0.972944                       # mshr miss rate for ReadSharedReq accesses
system.l3.ReadSharedReq_mshr_miss_rate::cpu3.data     0.981350                       # mshr miss rate for ReadSharedReq accesses
system.l3.ReadSharedReq_mshr_miss_rate::total     0.975947                       # mshr miss rate for ReadSharedReq accesses
system.l3.demand_mshr_miss_rate::cpu0.inst     0.974543                       # mshr miss rate for demand accesses
system.l3.demand_mshr_miss_rate::cpu0.data     0.986260                       # mshr miss rate for demand accesses
system.l3.demand_mshr_miss_rate::cpu1.inst     0.973600                       # mshr miss rate for demand accesses
system.l3.demand_mshr_miss_rate::cpu1.data     0.985137                       # mshr miss rate for demand accesses
system.l3.demand_mshr_miss_rate::cpu2.inst     0.976437                       # mshr miss rate for demand accesses
system.l3.demand_mshr_miss_rate::cpu2.data     0.982196                       # mshr miss rate for demand accesses
system.l3.demand_mshr_miss_rate::cpu3.inst     0.972944                       # mshr miss rate for demand accesses
system.l3.demand_mshr_miss_rate::cpu3.data     0.985637                       # mshr miss rate for demand accesses
system.l3.demand_mshr_miss_rate::total       0.978285                       # mshr miss rate for demand accesses
system.l3.overall_mshr_miss_rate::cpu0.inst     0.974543                       # mshr miss rate for overall accesses
system.l3.overall_mshr_miss_rate::cpu0.data     0.986260                       # mshr miss rate for overall accesses
system.l3.overall_mshr_miss_rate::cpu1.inst     0.973600                       # mshr miss rate for overall accesses
system.l3.overall_mshr_miss_rate::cpu1.data     0.985137                       # mshr miss rate for overall accesses
system.l3.overall_mshr_miss_rate::cpu2.inst     0.976437                       # mshr miss rate for overall accesses
system.l3.overall_mshr_miss_rate::cpu2.data     0.982196                       # mshr miss rate for overall accesses
system.l3.overall_mshr_miss_rate::cpu3.inst     0.972944                       # mshr miss rate for overall accesses
system.l3.overall_mshr_miss_rate::cpu3.data     0.985637                       # mshr miss rate for overall accesses
system.l3.overall_mshr_miss_rate::total      0.978285                       # mshr miss rate for overall accesses
system.l3.ReadExReq_avg_mshr_miss_latency::cpu0.data 49481.238616                       # average ReadExReq mshr miss latency
system.l3.ReadExReq_avg_mshr_miss_latency::cpu1.data 48707.200730                       # average ReadExReq mshr miss latency
system.l3.ReadExReq_avg_mshr_miss_latency::cpu2.data 46539.520947                       # average ReadExReq mshr miss latency
system.l3.ReadExReq_avg_mshr_miss_latency::cpu3.data 48141.553506                       # average ReadExReq mshr miss latency
system.l3.ReadExReq_avg_mshr_miss_latency::total 48217.397166                       # average ReadExReq mshr miss latency
system.l3.ReadSharedReq_avg_mshr_miss_latency::cpu0.inst 50916.390361                       # average ReadSharedReq mshr miss latency
system.l3.ReadSharedReq_avg_mshr_miss_latency::cpu0.data 51022.156987                       # average ReadSharedReq mshr miss latency
system.l3.ReadSharedReq_avg_mshr_miss_latency::cpu1.inst 51018.048369                       # average ReadSharedReq mshr miss latency
system.l3.ReadSharedReq_avg_mshr_miss_latency::cpu1.data 50360.435528                       # average ReadSharedReq mshr miss latency
system.l3.ReadSharedReq_avg_mshr_miss_latency::cpu2.inst 51629.961243                       # average ReadSharedReq mshr miss latency
system.l3.ReadSharedReq_avg_mshr_miss_latency::cpu2.data 51982.962929                       # average ReadSharedReq mshr miss latency
system.l3.ReadSharedReq_avg_mshr_miss_latency::cpu3.inst 50671.854372                       # average ReadSharedReq mshr miss latency
system.l3.ReadSharedReq_avg_mshr_miss_latency::cpu3.data 50751.951131                       # average ReadSharedReq mshr miss latency
system.l3.ReadSharedReq_avg_mshr_miss_latency::total 51050.617983                       # average ReadSharedReq mshr miss latency
system.l3.demand_avg_mshr_miss_latency::cpu0.inst 50916.390361                       # average overall mshr miss latency
system.l3.demand_avg_mshr_miss_latency::cpu0.data 50509.761962                       # average overall mshr miss latency
system.l3.demand_avg_mshr_miss_latency::cpu1.inst 51018.048369                       # average overall mshr miss latency
system.l3.demand_avg_mshr_miss_latency::cpu1.data 49813.680748                       # average overall mshr miss latency
system.l3.demand_avg_mshr_miss_latency::cpu2.inst 51629.961243                       # average overall mshr miss latency
system.l3.demand_avg_mshr_miss_latency::cpu2.data 50177.253172                       # average overall mshr miss latency
system.l3.demand_avg_mshr_miss_latency::cpu3.inst 50671.854372                       # average overall mshr miss latency
system.l3.demand_avg_mshr_miss_latency::cpu3.data 49892.913175                       # average overall mshr miss latency
system.l3.demand_avg_mshr_miss_latency::total 50696.889757                       # average overall mshr miss latency
system.l3.overall_avg_mshr_miss_latency::cpu0.inst 50916.390361                       # average overall mshr miss latency
system.l3.overall_avg_mshr_miss_latency::cpu0.data 50509.761962                       # average overall mshr miss latency
system.l3.overall_avg_mshr_miss_latency::cpu1.inst 51018.048369                       # average overall mshr miss latency
system.l3.overall_avg_mshr_miss_latency::cpu1.data 49813.680748                       # average overall mshr miss latency
system.l3.overall_avg_mshr_miss_latency::cpu2.inst 51629.961243                       # average overall mshr miss latency
system.l3.overall_avg_mshr_miss_latency::cpu2.data 50177.253172                       # average overall mshr miss latency
system.l3.overall_avg_mshr_miss_latency::cpu3.inst 50671.854372                       # average overall mshr miss latency
system.l3.overall_avg_mshr_miss_latency::cpu3.data 49892.913175                       # average overall mshr miss latency
system.l3.overall_avg_mshr_miss_latency::total 50696.889757                       # average overall mshr miss latency
system.membus.snoop_filter.tot_requests         17525                       # Total number of requests made to the snoop filter.
system.membus.snoop_filter.hit_single_requests            0                       # Number of requests hitting in the snoop filter with a single holder of the requested data.
system.membus.snoop_filter.hit_multi_requests            0                       # Number of requests hitting in the snoop filter with multiple (>1) holders of the requested data.
system.membus.snoop_filter.tot_snoops               0                       # Total number of snoops made to the snoop filter.
system.membus.snoop_filter.hit_single_snoops            0                       # Number of snoops hitting in the snoop filter with a single holder of the requested data.
system.membus.snoop_filter.hit_multi_snoops            0                       # Number of snoops hitting in the snoop filter with multiple (>1) holders of the requested data.
system.membus.pwrStateResidencyTicks::UNDEFINED   3490870635                       # Cumulative time (in ticks) in various power states
system.membus.trans_dist::ReadResp              15337                       # Transaction distribution
system.membus.trans_dist::ReadExReq              2188                       # Transaction distribution
system.membus.trans_dist::ReadExResp             2188                       # Transaction distribution
system.membus.trans_dist::ReadSharedReq         15337                       # Transaction distribution
system.membus.pkt_count_system.l3.mem_side::system.mem_ctrls.port        35050                       # Packet count per connected master and slave (bytes)
system.membus.pkt_count_system.l3.mem_side::total        35050                       # Packet count per connected master and slave (bytes)
system.membus.pkt_count::total                  35050                       # Packet count per connected master and slave (bytes)
system.membus.pkt_size_system.l3.mem_side::system.mem_ctrls.port      1121600                       # Cumulative packet size per connected master and slave (bytes)
system.membus.pkt_size_system.l3.mem_side::total      1121600                       # Cumulative packet size per connected master and slave (bytes)
system.membus.pkt_size::total                 1121600                       # Cumulative packet size per connected master and slave (bytes)
system.membus.snoops                                0                       # Total snoops (count)
system.membus.snoopTraffic                          0                       # Total snoop traffic (bytes)
system.membus.snoop_fanout::samples             17525                       # Request fanout histogram
system.membus.snoop_fanout::mean                    0                       # Request fanout histogram
system.membus.snoop_fanout::stdev                   0                       # Request fanout histogram
system.membus.snoop_fanout::underflows              0      0.00%      0.00% # Request fanout histogram
system.membus.snoop_fanout::0                   17525    100.00%    100.00% # Request fanout histogram
system.membus.snoop_fanout::1                       0      0.00%    100.00% # Request fanout histogram
system.membus.snoop_fanout::overflows               0      0.00%    100.00% # Request fanout histogram
system.membus.snoop_fanout::min_value               0                       # Request fanout histogram
system.membus.snoop_fanout::max_value               0                       # Request fanout histogram
system.membus.snoop_fanout::total               17525                       # Request fanout histogram
system.membus.reqLayer8.occupancy            22909452                       # Layer occupancy (ticks)
system.membus.reqLayer8.utilization               0.7                       # Layer utilization (%)
system.membus.respLayer1.occupancy           93760170                       # Layer occupancy (ticks)
system.membus.respLayer1.utilization              2.7                       # Layer utilization (%)
system.tol3bus.snoop_filter.tot_requests        21817                       # Total number of requests made to the snoop filter.
system.tol3bus.snoop_filter.hit_single_requests         3905                       # Number of requests hitting in the snoop filter with a single holder of the requested data.
system.tol3bus.snoop_filter.hit_multi_requests            0                       # Number of requests hitting in the snoop filter with multiple (>1) holders of the requested data.
system.tol3bus.snoop_filter.tot_snoops              0                       # Total number of snoops made to the snoop filter.
system.tol3bus.snoop_filter.hit_single_snoops            0                       # Number of snoops hitting in the snoop filter with a single holder of the requested data.
system.tol3bus.snoop_filter.hit_multi_snoops            0                       # Number of snoops hitting in the snoop filter with multiple (>1) holders of the requested data.
system.tol3bus.pwrStateResidencyTicks::UNDEFINED   3490870635                       # Cumulative time (in ticks) in various power states
system.tol3bus.trans_dist::ReadResp             15715                       # Transaction distribution
system.tol3bus.trans_dist::WritebackDirty          521                       # Transaction distribution
system.tol3bus.trans_dist::CleanEvict            3382                       # Transaction distribution
system.tol3bus.trans_dist::ReadExReq             2199                       # Transaction distribution
system.tol3bus.trans_dist::ReadExResp            2199                       # Transaction distribution
system.tol3bus.trans_dist::ReadSharedReq        15715                       # Transaction distribution
system.tol3bus.pkt_count_system.cpu0.l2cache.mem_side::system.l3.cpu_side         9888                       # Packet count per connected master and slave (bytes)
system.tol3bus.pkt_count_system.cpu1.l2cache.mem_side::system.l3.cpu_side         9961                       # Packet count per connected master and slave (bytes)
system.tol3bus.pkt_count_system.cpu2.l2cache.mem_side::system.l3.cpu_side         9969                       # Packet count per connected master and slave (bytes)
system.tol3bus.pkt_count_system.cpu3.l2cache.mem_side::system.l3.cpu_side         9913                       # Packet count per connected master and slave (bytes)
system.tol3bus.pkt_count::total                 39731                       # Packet count per connected master and slave (bytes)
system.tol3bus.pkt_size_system.cpu0.l2cache.mem_side::system.l3.cpu_side       294080                       # Cumulative packet size per connected master and slave (bytes)
system.tol3bus.pkt_size_system.cpu1.l2cache.mem_side::system.l3.cpu_side       296896                       # Cumulative packet size per connected master and slave (bytes)
system.tol3bus.pkt_size_system.cpu2.l2cache.mem_side::system.l3.cpu_side       295104                       # Cumulative packet size per connected master and slave (bytes)
system.tol3bus.pkt_size_system.cpu3.l2cache.mem_side::system.l3.cpu_side       293760                       # Cumulative packet size per connected master and slave (bytes)
system.tol3bus.pkt_size::total                1179840                       # Cumulative packet size per connected master and slave (bytes)
system.tol3bus.snoops                               0                       # Total snoops (count)
system.tol3bus.snoopTraffic                         0                       # Total snoop traffic (bytes)
system.tol3bus.snoop_fanout::samples            17914                       # Request fanout histogram
system.tol3bus.snoop_fanout::mean                   0                       # Request fanout histogram
system.tol3bus.snoop_fanout::stdev                  0                       # Request fanout histogram
system.tol3bus.snoop_fanout::underflows             0      0.00%      0.00% # Request fanout histogram
system.tol3bus.snoop_fanout::0                  17914    100.00%    100.00% # Request fanout histogram
system.tol3bus.snoop_fanout::1                      0      0.00%    100.00% # Request fanout histogram
system.tol3bus.snoop_fanout::2                      0      0.00%    100.00% # Request fanout histogram
system.tol3bus.snoop_fanout::3                      0      0.00%    100.00% # Request fanout histogram
system.tol3bus.snoop_fanout::4                      0      0.00%    100.00% # Request fanout histogram
system.tol3bus.snoop_fanout::overflows              0      0.00%    100.00% # Request fanout histogram
system.tol3bus.snoop_fanout::min_value              0                       # Request fanout histogram
system.tol3bus.snoop_fanout::max_value              0                       # Request fanout histogram
system.tol3bus.snoop_fanout::total              17914                       # Request fanout histogram
system.tol3bus.reqLayer0.occupancy           31797174                       # Layer occupancy (ticks)
system.tol3bus.reqLayer0.utilization              0.9                       # Layer utilization (%)
system.tol3bus.respLayer0.occupancy          14179923                       # Layer occupancy (ticks)
system.tol3bus.respLayer0.utilization             0.4                       # Layer utilization (%)
system.tol3bus.respLayer1.occupancy          14246402                       # Layer occupancy (ticks)
system.tol3bus.respLayer1.utilization             0.4                       # Layer utilization (%)
system.tol3bus.respLayer2.occupancy          14260369                       # Layer occupancy (ticks)
system.tol3bus.respLayer2.utilization             0.4                       # Layer utilization (%)
system.tol3bus.respLayer3.occupancy          14232602                       # Layer occupancy (ticks)
system.tol3bus.respLayer3.utilization             0.4                       # Layer utilization (%)

---------- End Simulation Statistics   ----------
