
---------- Begin Simulation Statistics ----------
sim_seconds                                  0.003895                       # Number of seconds simulated
sim_ticks                                  3895047387                       # Number of ticks simulated
final_tick                                 3895047387                       # Number of ticks from beginning of simulation (restored from checkpoints and never reset)
sim_freq                                 1000000000000                       # Frequency of simulated ticks
host_inst_rate                                 163403                       # Simulator instruction rate (inst/s)
host_op_rate                                   309808                       # Simulator op (including micro ops) rate (op/s)
host_tick_rate                               16272520                       # Simulator tick rate (ticks/s)
host_mem_usage                               33820308                       # Number of bytes of host memory used
host_seconds                                   239.36                       # Real time elapsed on the host
sim_insts                                    39112703                       # Number of instructions simulated
sim_ops                                      74156775                       # Number of ops (including micro ops) simulated
system.voltage_domain.voltage                       1                       # Voltage in Volts
system.clk_domain.clock                          1000                       # Clock period in ticks
system.mem_ctrls.pwrStateResidencyTicks::UNDEFINED   3895047387                       # Cumulative time (in ticks) in various power states
system.mem_ctrls.bytes_read::cpu0.inst          43136                       # Number of bytes read from this memory
system.mem_ctrls.bytes_read::cpu0.data        2419456                       # Number of bytes read from this memory
system.mem_ctrls.bytes_read::cpu1.inst          42304                       # Number of bytes read from this memory
system.mem_ctrls.bytes_read::cpu1.data        2420800                       # Number of bytes read from this memory
system.mem_ctrls.bytes_read::cpu2.inst          42368                       # Number of bytes read from this memory
system.mem_ctrls.bytes_read::cpu2.data        2431936                       # Number of bytes read from this memory
system.mem_ctrls.bytes_read::cpu3.inst          42688                       # Number of bytes read from this memory
system.mem_ctrls.bytes_read::cpu3.data        2433792                       # Number of bytes read from this memory
system.mem_ctrls.bytes_read::total            9876480                       # Number of bytes read from this memory
system.mem_ctrls.bytes_inst_read::cpu0.inst        43136                       # Number of instructions bytes read from this memory
system.mem_ctrls.bytes_inst_read::cpu1.inst        42304                       # Number of instructions bytes read from this memory
system.mem_ctrls.bytes_inst_read::cpu2.inst        42368                       # Number of instructions bytes read from this memory
system.mem_ctrls.bytes_inst_read::cpu3.inst        42688                       # Number of instructions bytes read from this memory
system.mem_ctrls.bytes_inst_read::total        170496                       # Number of instructions bytes read from this memory
system.mem_ctrls.bytes_written::writebacks      1298304                       # Number of bytes written to this memory
system.mem_ctrls.bytes_written::total         1298304                       # Number of bytes written to this memory
system.mem_ctrls.num_reads::cpu0.inst             674                       # Number of read requests responded to by this memory
system.mem_ctrls.num_reads::cpu0.data           37804                       # Number of read requests responded to by this memory
system.mem_ctrls.num_reads::cpu1.inst             661                       # Number of read requests responded to by this memory
system.mem_ctrls.num_reads::cpu1.data           37825                       # Number of read requests responded to by this memory
system.mem_ctrls.num_reads::cpu2.inst             662                       # Number of read requests responded to by this memory
system.mem_ctrls.num_reads::cpu2.data           37999                       # Number of read requests responded to by this memory
system.mem_ctrls.num_reads::cpu3.inst             667                       # Number of read requests responded to by this memory
system.mem_ctrls.num_reads::cpu3.data           38028                       # Number of read requests responded to by this memory
system.mem_ctrls.num_reads::total              154320                       # Number of read requests responded to by this memory
system.mem_ctrls.num_writes::writebacks         20286                       # Number of write requests responded to by this memory
system.mem_ctrls.num_writes::total              20286                       # Number of write requests responded to by this memory
system.mem_ctrls.bw_read::cpu0.inst          11074576                       # Total read bandwidth from this memory (bytes/s)
system.mem_ctrls.bw_read::cpu0.data         621162148                       # Total read bandwidth from this memory (bytes/s)
system.mem_ctrls.bw_read::cpu1.inst          10860972                       # Total read bandwidth from this memory (bytes/s)
system.mem_ctrls.bw_read::cpu1.data         621507201                       # Total read bandwidth from this memory (bytes/s)
system.mem_ctrls.bw_read::cpu2.inst          10877403                       # Total read bandwidth from this memory (bytes/s)
system.mem_ctrls.bw_read::cpu2.data         624366216                       # Total read bandwidth from this memory (bytes/s)
system.mem_ctrls.bw_read::cpu3.inst          10959559                       # Total read bandwidth from this memory (bytes/s)
system.mem_ctrls.bw_read::cpu3.data         624842719                       # Total read bandwidth from this memory (bytes/s)
system.mem_ctrls.bw_read::total            2535650794                       # Total read bandwidth from this memory (bytes/s)
system.mem_ctrls.bw_inst_read::cpu0.inst     11074576                       # Instruction read bandwidth from this memory (bytes/s)
system.mem_ctrls.bw_inst_read::cpu1.inst     10860972                       # Instruction read bandwidth from this memory (bytes/s)
system.mem_ctrls.bw_inst_read::cpu2.inst     10877403                       # Instruction read bandwidth from this memory (bytes/s)
system.mem_ctrls.bw_inst_read::cpu3.inst     10959559                       # Instruction read bandwidth from this memory (bytes/s)
system.mem_ctrls.bw_inst_read::total         43772510                       # Instruction read bandwidth from this memory (bytes/s)
system.mem_ctrls.bw_write::writebacks       333321747                       # Write bandwidth from this memory (bytes/s)
system.mem_ctrls.bw_write::total            333321747                       # Write bandwidth from this memory (bytes/s)
system.mem_ctrls.bw_total::writebacks       333321747                       # Total bandwidth to/from this memory (bytes/s)
system.mem_ctrls.bw_total::cpu0.inst         11074576                       # Total bandwidth to/from this memory (bytes/s)
system.mem_ctrls.bw_total::cpu0.data        621162148                       # Total bandwidth to/from this memory (bytes/s)
system.mem_ctrls.bw_total::cpu1.inst         10860972                       # Total bandwidth to/from this memory (bytes/s)
system.mem_ctrls.bw_total::cpu1.data        621507201                       # Total bandwidth to/from this memory (bytes/s)
system.mem_ctrls.bw_total::cpu2.inst         10877403                       # Total bandwidth to/from this memory (bytes/s)
system.mem_ctrls.bw_total::cpu2.data        624366216                       # Total bandwidth to/from this memory (bytes/s)
system.mem_ctrls.bw_total::cpu3.inst         10959559                       # Total bandwidth to/from this memory (bytes/s)
system.mem_ctrls.bw_total::cpu3.data        624842719                       # Total bandwidth to/from this memory (bytes/s)
system.mem_ctrls.bw_total::total           2868972541                       # Total bandwidth to/from this memory (bytes/s)
system.pwrStateResidencyTicks::UNDEFINED   3895047387                       # Cumulative time (in ticks) in various power states
system.cpu0.branchPred.lookups                2700972                       # Number of BP lookups
system.cpu0.branchPred.condPredicted          2700972                       # Number of conditional branches predicted
system.cpu0.branchPred.condIncorrect            85533                       # Number of conditional branches incorrect
system.cpu0.branchPred.BTBLookups             2403308                       # Number of BTB lookups
system.cpu0.branchPred.BTBHits                      0                       # Number of BTB hits
system.cpu0.branchPred.BTBCorrect                   0                       # Number of correct BTB predictions (this stat may not work properly.
system.cpu0.branchPred.BTBHitPct             0.000000                       # BTB Hit Percentage
system.cpu0.branchPred.usedRAS                 138491                       # Number of times the RAS was used to get a target.
system.cpu0.branchPred.RASInCorrect             15980                       # Number of incorrect RAS predictions.
system.cpu0.branchPred.indirectLookups        2403308                       # Number of indirect predictor lookups.
system.cpu0.branchPred.indirectHits           1035124                       # Number of indirect target hits.
system.cpu0.branchPred.indirectMisses         1368184                       # Number of indirect misses.
system.cpu0.branchPredindirectMispredicted        60653                       # Number of mispredicted indirect branches.
system.cpu_voltage_domain.voltage                   1                       # Voltage in Volts
system.cpu_clk_domain.clock                       333                       # Clock period in ticks
system.cpu0.dtb.walker.pwrStateResidencyTicks::UNDEFINED   3895047387                       # Cumulative time (in ticks) in various power states
system.cpu0.dtb.rdAccesses                    2183404                       # TLB accesses on read requests
system.cpu0.dtb.wrAccesses                    1728530                       # TLB accesses on write requests
system.cpu0.dtb.rdMisses                         4381                       # TLB misses on read requests
system.cpu0.dtb.wrMisses                         1126                       # TLB misses on write requests
system.cpu0.apic_clk_domain.clock                5328                       # Clock period in ticks
system.cpu0.interrupts.pwrStateResidencyTicks::UNDEFINED   3895047387                       # Cumulative time (in ticks) in various power states
system.cpu0.itb.walker.pwrStateResidencyTicks::UNDEFINED   3895047387                       # Cumulative time (in ticks) in various power states
system.cpu0.itb.rdAccesses                          0                       # TLB accesses on read requests
system.cpu0.itb.wrAccesses                    1801073                       # TLB accesses on write requests
system.cpu0.itb.rdMisses                            0                       # TLB misses on read requests
system.cpu0.itb.wrMisses                          172                       # TLB misses on write requests
system.cpu0.workload.numSyscalls                   27                       # Number of system calls
system.cpu0.pwrStateResidencyTicks::ON     3895047387                       # Cumulative time (in ticks) in various power states
system.cpu0.numCycles                        11696840                       # number of cpu cycles simulated
system.cpu0.numWorkItemsStarted                     0                       # number of work items this cpu started
system.cpu0.numWorkItemsCompleted                   0                       # number of work items this cpu completed
system.cpu0.fetch.icacheStallCycles           1884638                       # Number of cycles fetch is stalled on an Icache miss
system.cpu0.fetch.Insts                      11954956                       # Number of instructions fetch has processed
system.cpu0.fetch.Branches                    2700972                       # Number of branches that fetch encountered
system.cpu0.fetch.predictedBranches           1173615                       # Number of branches that fetch has predicted taken
system.cpu0.fetch.Cycles                      9662968                       # Number of cycles fetch has run and was not squashing or blocked
system.cpu0.fetch.SquashCycles                 171368                       # Number of cycles fetch has spent squashing
system.cpu0.fetch.MiscStallCycles                 246                       # Number of cycles fetch has spent waiting on interrupts, or bad addresses, or out of MSHRs
system.cpu0.fetch.PendingTrapStallCycles          608                       # Number of stall cycles due to pending traps
system.cpu0.fetch.PendingQuiesceStallCycles            7                       # Number of stall cycles due to pending quiesce instructions
system.cpu0.fetch.IcacheWaitRetryStallCycles           59                       # Number of stall cycles due to full MSHR
system.cpu0.fetch.CacheLines                  1800953                       # Number of cache lines fetched
system.cpu0.fetch.IcacheSquashes                18958                       # Number of outstanding Icache misses that were squashed
system.cpu0.fetch.rateDist::samples          11634210                       # Number of instructions fetched each cycle (Total)
system.cpu0.fetch.rateDist::mean             1.929359                       # Number of instructions fetched each cycle (Total)
system.cpu0.fetch.rateDist::stdev            3.140633                       # Number of instructions fetched each cycle (Total)
system.cpu0.fetch.rateDist::underflows              0      0.00%      0.00% # Number of instructions fetched each cycle (Total)
system.cpu0.fetch.rateDist::0                 7964316     68.46%     68.46% # Number of instructions fetched each cycle (Total)
system.cpu0.fetch.rateDist::1                  214495      1.84%     70.30% # Number of instructions fetched each cycle (Total)
system.cpu0.fetch.rateDist::2                  260015      2.23%     72.53% # Number of instructions fetched each cycle (Total)
system.cpu0.fetch.rateDist::3                  261665      2.25%     74.78% # Number of instructions fetched each cycle (Total)
system.cpu0.fetch.rateDist::4                  172388      1.48%     76.27% # Number of instructions fetched each cycle (Total)
system.cpu0.fetch.rateDist::5                  371759      3.20%     79.46% # Number of instructions fetched each cycle (Total)
system.cpu0.fetch.rateDist::6                  268069      2.30%     81.76% # Number of instructions fetched each cycle (Total)
system.cpu0.fetch.rateDist::7                  201735      1.73%     83.50% # Number of instructions fetched each cycle (Total)
system.cpu0.fetch.rateDist::8                 1919768     16.50%    100.00% # Number of instructions fetched each cycle (Total)
system.cpu0.fetch.rateDist::overflows               0      0.00%    100.00% # Number of instructions fetched each cycle (Total)
system.cpu0.fetch.rateDist::min_value               0                       # Number of instructions fetched each cycle (Total)
system.cpu0.fetch.rateDist::max_value               8                       # Number of instructions fetched each cycle (Total)
system.cpu0.fetch.rateDist::total            11634210                       # Number of instructions fetched each cycle (Total)
system.cpu0.fetch.branchRate                 0.230915                       # Number of branch fetches per cycle
system.cpu0.fetch.rate                       1.022067                       # Number of inst fetches per cycle
system.cpu0.decode.IdleCycles                 1652550                       # Number of cycles decode is idle
system.cpu0.decode.BlockedCycles              6547645                       # Number of cycles decode is blocked
system.cpu0.decode.RunCycles                  3125521                       # Number of cycles decode is running
system.cpu0.decode.UnblockCycles               222810                       # Number of cycles decode is unblocking
system.cpu0.decode.SquashCycles                 85684                       # Number of cycles decode is squashing
system.cpu0.decode.DecodedInsts              21527485                       # Number of instructions handled by decode
system.cpu0.rename.SquashCycles                 85684                       # Number of cycles rename is squashing
system.cpu0.rename.IdleCycles                 1799063                       # Number of cycles rename is idle
system.cpu0.rename.BlockCycles                 560570                       # Number of cycles rename is blocking
system.cpu0.rename.serializeStallCycles        134542                       # count of cycles rename stalled for serializing inst
system.cpu0.rename.RunCycles                  3196219                       # Number of cycles rename is running
system.cpu0.rename.UnblockCycles              5858132                       # Number of cycles rename is unblocking
system.cpu0.rename.RenamedInsts              21018287                       # Number of instructions processed by rename
system.cpu0.rename.ROBFullEvents                   46                       # Number of times rename has blocked due to ROB full
system.cpu0.rename.IQFullEvents                 13912                       # Number of times rename has blocked due to IQ full
system.cpu0.rename.LQFullEvents                   204                       # Number of times rename has blocked due to LQ full
system.cpu0.rename.SQFullEvents               5829288                       # Number of times rename has blocked due to SQ full
system.cpu0.rename.RenamedOperands           22666282                       # Number of destination operands rename has renamed
system.cpu0.rename.RenameLookups             53717898                       # Number of register rename lookups that rename has made
system.cpu0.rename.int_rename_lookups        31574178                       # Number of integer rename lookups
system.cpu0.rename.fp_rename_lookups           313941                       # Number of floating rename lookups
system.cpu0.rename.CommittedMaps             19615692                       # Number of HB maps that are committed
system.cpu0.rename.UndoneMaps                 3050585                       # Number of HB maps that are undone due to squashing
system.cpu0.rename.serializingInsts               455                       # count of serializing insts renamed
system.cpu0.rename.tempSerializingInsts           668                       # count of temporary serializing insts renamed
system.cpu0.rename.skidInsts                  1212536                       # count of insts added to the skid buffer
system.cpu0.memDep0.insertedLoads             2299684                       # Number of loads inserted to the mem dependence unit.
system.cpu0.memDep0.insertedStores            1852662                       # Number of stores inserted to the mem dependence unit.
system.cpu0.memDep0.conflictingLoads            89296                       # Number of conflicting loads.
system.cpu0.memDep0.conflictingStores           34104                       # Number of conflicting stores.
system.cpu0.iq.iqInstsAdded                  20252120                       # Number of instructions added to the IQ (excludes non-spec)
system.cpu0.iq.iqNonSpecInstsAdded               9124                       # Number of non-speculative instructions added to the IQ
system.cpu0.iq.iqInstsIssued                 19481556                       # Number of instructions issued
system.cpu0.iq.iqSquashedInstsIssued            25850                       # Number of squashed instructions issued
system.cpu0.iq.iqSquashedInstsExamined        2138978                       # Number of squashed instructions iterated over during squash; mainly for profiling
system.cpu0.iq.iqSquashedOperandsExamined      3036757                       # Number of squashed operands that are examined and possibly removed from graph
system.cpu0.iq.iqSquashedNonSpecRemoved          9061                       # Number of squashed non-spec instructions that were removed
system.cpu0.iq.issued_per_cycle::samples     11634210                       # Number of insts issued each cycle
system.cpu0.iq.issued_per_cycle::mean        1.674506                       # Number of insts issued each cycle
system.cpu0.iq.issued_per_cycle::stdev       2.359426                       # Number of insts issued each cycle
system.cpu0.iq.issued_per_cycle::underflows            0      0.00%      0.00% # Number of insts issued each cycle
system.cpu0.iq.issued_per_cycle::0            6657689     57.23%     57.23% # Number of insts issued each cycle
system.cpu0.iq.issued_per_cycle::1             686324      5.90%     63.12% # Number of insts issued each cycle
system.cpu0.iq.issued_per_cycle::2             850917      7.31%     70.44% # Number of insts issued each cycle
system.cpu0.iq.issued_per_cycle::3             778846      6.69%     77.13% # Number of insts issued each cycle
system.cpu0.iq.issued_per_cycle::4             702958      6.04%     83.17% # Number of insts issued each cycle
system.cpu0.iq.issued_per_cycle::5             726437      6.24%     89.42% # Number of insts issued each cycle
system.cpu0.iq.issued_per_cycle::6             563026      4.84%     94.26% # Number of insts issued each cycle
system.cpu0.iq.issued_per_cycle::7             409417      3.52%     97.78% # Number of insts issued each cycle
system.cpu0.iq.issued_per_cycle::8             258596      2.22%    100.00% # Number of insts issued each cycle
system.cpu0.iq.issued_per_cycle::overflows            0      0.00%    100.00% # Number of insts issued each cycle
system.cpu0.iq.issued_per_cycle::min_value            0                       # Number of insts issued each cycle
system.cpu0.iq.issued_per_cycle::max_value            8                       # Number of insts issued each cycle
system.cpu0.iq.issued_per_cycle::total       11634210                       # Number of insts issued each cycle
system.cpu0.iq.fu_full::No_OpClass                  0      0.00%      0.00% # attempts to use FU when none available
system.cpu0.iq.fu_full::IntAlu                 158938     70.78%     70.78% # attempts to use FU when none available
system.cpu0.iq.fu_full::IntMult                     0      0.00%     70.78% # attempts to use FU when none available
system.cpu0.iq.fu_full::IntDiv                      0      0.00%     70.78% # attempts to use FU when none available
system.cpu0.iq.fu_full::FloatAdd                  356      0.16%     70.94% # attempts to use FU when none available
system.cpu0.iq.fu_full::FloatCmp                    0      0.00%     70.94% # attempts to use FU when none available
system.cpu0.iq.fu_full::FloatCvt                    0      0.00%     70.94% # attempts to use FU when none available
system.cpu0.iq.fu_full::FloatMult                   0      0.00%     70.94% # attempts to use FU when none available
system.cpu0.iq.fu_full::FloatMultAcc                0      0.00%     70.94% # attempts to use FU when none available
system.cpu0.iq.fu_full::FloatDiv                    0      0.00%     70.94% # attempts to use FU when none available
system.cpu0.iq.fu_full::FloatMisc                   0      0.00%     70.94% # attempts to use FU when none available
system.cpu0.iq.fu_full::FloatSqrt                   0      0.00%     70.94% # attempts to use FU when none available
system.cpu0.iq.fu_full::SimdAdd                     0      0.00%     70.94% # attempts to use FU when none available
system.cpu0.iq.fu_full::SimdAddAcc                  0      0.00%     70.94% # attempts to use FU when none available
system.cpu0.iq.fu_full::SimdAlu                     0      0.00%     70.94% # attempts to use FU when none available
system.cpu0.iq.fu_full::SimdCmp                     0      0.00%     70.94% # attempts to use FU when none available
system.cpu0.iq.fu_full::SimdCvt                     0      0.00%     70.94% # attempts to use FU when none available
system.cpu0.iq.fu_full::SimdMisc                    0      0.00%     70.94% # attempts to use FU when none available
system.cpu0.iq.fu_full::SimdMult                    0      0.00%     70.94% # attempts to use FU when none available
system.cpu0.iq.fu_full::SimdMultAcc                 0      0.00%     70.94% # attempts to use FU when none available
system.cpu0.iq.fu_full::SimdShift                   0      0.00%     70.94% # attempts to use FU when none available
system.cpu0.iq.fu_full::SimdShiftAcc                0      0.00%     70.94% # attempts to use FU when none available
system.cpu0.iq.fu_full::SimdSqrt                    0      0.00%     70.94% # attempts to use FU when none available
system.cpu0.iq.fu_full::SimdFloatAdd                0      0.00%     70.94% # attempts to use FU when none available
system.cpu0.iq.fu_full::SimdFloatAlu                0      0.00%     70.94% # attempts to use FU when none available
system.cpu0.iq.fu_full::SimdFloatCmp                0      0.00%     70.94% # attempts to use FU when none available
system.cpu0.iq.fu_full::SimdFloatCvt                0      0.00%     70.94% # attempts to use FU when none available
system.cpu0.iq.fu_full::SimdFloatDiv                0      0.00%     70.94% # attempts to use FU when none available
system.cpu0.iq.fu_full::SimdFloatMisc               0      0.00%     70.94% # attempts to use FU when none available
system.cpu0.iq.fu_full::SimdFloatMult               0      0.00%     70.94% # attempts to use FU when none available
system.cpu0.iq.fu_full::SimdFloatMultAcc            0      0.00%     70.94% # attempts to use FU when none available
system.cpu0.iq.fu_full::SimdFloatSqrt               0      0.00%     70.94% # attempts to use FU when none available
system.cpu0.iq.fu_full::MemRead                 41346     18.41%     89.35% # attempts to use FU when none available
system.cpu0.iq.fu_full::MemWrite                23615     10.52%     99.87% # attempts to use FU when none available
system.cpu0.iq.fu_full::FloatMemRead              269      0.12%     99.99% # attempts to use FU when none available
system.cpu0.iq.fu_full::FloatMemWrite              26      0.01%    100.00% # attempts to use FU when none available
system.cpu0.iq.fu_full::IprAccess                   0      0.00%    100.00% # attempts to use FU when none available
system.cpu0.iq.fu_full::InstPrefetch                0      0.00%    100.00% # attempts to use FU when none available
system.cpu0.iq.FU_type_0::No_OpClass            91842      0.47%      0.47% # Type of FU issued
system.cpu0.iq.FU_type_0::IntAlu             15229768     78.18%     78.65% # Type of FU issued
system.cpu0.iq.FU_type_0::IntMult               49864      0.26%     78.90% # Type of FU issued
system.cpu0.iq.FU_type_0::IntDiv                   39      0.00%     78.90% # Type of FU issued
system.cpu0.iq.FU_type_0::FloatAdd             154730      0.79%     79.70% # Type of FU issued
system.cpu0.iq.FU_type_0::FloatCmp                  0      0.00%     79.70% # Type of FU issued
system.cpu0.iq.FU_type_0::FloatCvt                  0      0.00%     79.70% # Type of FU issued
system.cpu0.iq.FU_type_0::FloatMult                 0      0.00%     79.70% # Type of FU issued
system.cpu0.iq.FU_type_0::FloatMultAcc              0      0.00%     79.70% # Type of FU issued
system.cpu0.iq.FU_type_0::FloatDiv                  0      0.00%     79.70% # Type of FU issued
system.cpu0.iq.FU_type_0::FloatMisc                 0      0.00%     79.70% # Type of FU issued
system.cpu0.iq.FU_type_0::FloatSqrt                 0      0.00%     79.70% # Type of FU issued
system.cpu0.iq.FU_type_0::SimdAdd                   0      0.00%     79.70% # Type of FU issued
system.cpu0.iq.FU_type_0::SimdAddAcc                0      0.00%     79.70% # Type of FU issued
system.cpu0.iq.FU_type_0::SimdAlu                   0      0.00%     79.70% # Type of FU issued
system.cpu0.iq.FU_type_0::SimdCmp                   0      0.00%     79.70% # Type of FU issued
system.cpu0.iq.FU_type_0::SimdCvt                   0      0.00%     79.70% # Type of FU issued
system.cpu0.iq.FU_type_0::SimdMisc                  0      0.00%     79.70% # Type of FU issued
system.cpu0.iq.FU_type_0::SimdMult                  0      0.00%     79.70% # Type of FU issued
system.cpu0.iq.FU_type_0::SimdMultAcc               0      0.00%     79.70% # Type of FU issued
system.cpu0.iq.FU_type_0::SimdShift                 0      0.00%     79.70% # Type of FU issued
system.cpu0.iq.FU_type_0::SimdShiftAcc              0      0.00%     79.70% # Type of FU issued
system.cpu0.iq.FU_type_0::SimdSqrt                  0      0.00%     79.70% # Type of FU issued
system.cpu0.iq.FU_type_0::SimdFloatAdd              0      0.00%     79.70% # Type of FU issued
system.cpu0.iq.FU_type_0::SimdFloatAlu              0      0.00%     79.70% # Type of FU issued
system.cpu0.iq.FU_type_0::SimdFloatCmp              0      0.00%     79.70% # Type of FU issued
system.cpu0.iq.FU_type_0::SimdFloatCvt              0      0.00%     79.70% # Type of FU issued
system.cpu0.iq.FU_type_0::SimdFloatDiv              0      0.00%     79.70% # Type of FU issued
system.cpu0.iq.FU_type_0::SimdFloatMisc             0      0.00%     79.70% # Type of FU issued
system.cpu0.iq.FU_type_0::SimdFloatMult             0      0.00%     79.70% # Type of FU issued
system.cpu0.iq.FU_type_0::SimdFloatMultAcc            0      0.00%     79.70% # Type of FU issued
system.cpu0.iq.FU_type_0::SimdFloatSqrt             0      0.00%     79.70% # Type of FU issued
system.cpu0.iq.FU_type_0::MemRead             2176236     11.17%     90.87% # Type of FU issued
system.cpu0.iq.FU_type_0::MemWrite            1747030      8.97%     99.84% # Type of FU issued
system.cpu0.iq.FU_type_0::FloatMemRead          31817      0.16%    100.00% # Type of FU issued
system.cpu0.iq.FU_type_0::FloatMemWrite           230      0.00%    100.00% # Type of FU issued
system.cpu0.iq.FU_type_0::IprAccess                 0      0.00%    100.00% # Type of FU issued
system.cpu0.iq.FU_type_0::InstPrefetch              0      0.00%    100.00% # Type of FU issued
system.cpu0.iq.FU_type_0::total              19481556                       # Type of FU issued
system.cpu0.iq.rate                          1.665540                       # Inst issue rate
system.cpu0.iq.fu_busy_cnt                     224550                       # FU busy when requested
system.cpu0.iq.fu_busy_rate                  0.011526                       # FU busy rate (busy events/executed inst)
system.cpu0.iq.int_inst_queue_reads          50449472                       # Number of integer instruction queue reads
system.cpu0.iq.int_inst_queue_writes         22174671                       # Number of integer instruction queue writes
system.cpu0.iq.int_inst_queue_wakeup_accesses     19030156                       # Number of integer instruction queue wakeup accesses
system.cpu0.iq.fp_inst_queue_reads             398250                       # Number of floating instruction queue reads
system.cpu0.iq.fp_inst_queue_writes            225655                       # Number of floating instruction queue writes
system.cpu0.iq.fp_inst_queue_wakeup_accesses       196745                       # Number of floating instruction queue wakeup accesses
system.cpu0.iq.vec_inst_queue_reads                 0                       # Number of vector instruction queue reads
system.cpu0.iq.vec_inst_queue_writes                0                       # Number of vector instruction queue writes
system.cpu0.iq.vec_inst_queue_wakeup_accesses            0                       # Number of vector instruction queue wakeup accesses
system.cpu0.iq.int_alu_accesses              19414831                       # Number of integer alu accesses
system.cpu0.iq.fp_alu_accesses                 199433                       # Number of floating point alu accesses
system.cpu0.iq.vec_alu_accesses                     0                       # Number of vector alu accesses
system.cpu0.iew.lsq.thread0.forwLoads          430627                       # Number of loads that had data forwarded from stores
system.cpu0.iew.lsq.thread0.invAddrLoads            0                       # Number of loads ignored due to an invalid address
system.cpu0.iew.lsq.thread0.squashedLoads       275037                       # Number of loads squashed
system.cpu0.iew.lsq.thread0.ignoredResponses          542                       # Number of memory responses ignored because the instruction is squashed
system.cpu0.iew.lsq.thread0.memOrderViolation          110                       # Number of memory ordering violations
system.cpu0.iew.lsq.thread0.squashedStores       218713                       # Number of stores squashed
system.cpu0.iew.lsq.thread0.invAddrSwpfs            0                       # Number of software prefetches ignored due to an invalid address
system.cpu0.iew.lsq.thread0.blockedLoads            0                       # Number of blocked loads due to partial load-store forwarding
system.cpu0.iew.lsq.thread0.rescheduledLoads           97                       # Number of loads that were rescheduled
system.cpu0.iew.lsq.thread0.cacheBlocked          168                       # Number of times an access to memory failed due to the cache being blocked
system.cpu0.iew.iewIdleCycles                       0                       # Number of cycles IEW is idle
system.cpu0.iew.iewSquashCycles                 85684                       # Number of cycles IEW is squashing
system.cpu0.iew.iewBlockCycles                 238375                       # Number of cycles IEW is blocking
system.cpu0.iew.iewUnblockCycles               320808                       # Number of cycles IEW is unblocking
system.cpu0.iew.iewDispatchedInsts           20261244                       # Number of instructions dispatched to IQ
system.cpu0.iew.iewDispSquashedInsts             8121                       # Number of squashed instructions skipped by dispatch
system.cpu0.iew.iewDispLoadInsts              2299684                       # Number of dispatched load instructions
system.cpu0.iew.iewDispStoreInsts             1852662                       # Number of dispatched store instructions
system.cpu0.iew.iewDispNonSpecInsts              4084                       # Number of dispatched non-speculative instructions
system.cpu0.iew.iewIQFullEvents                   102                       # Number of times the IQ has become full, causing a stall
system.cpu0.iew.iewLSQFullEvents               319507                       # Number of times the LSQ has become full, causing a stall
system.cpu0.iew.memOrderViolationEvents           110                       # Number of memory order violations
system.cpu0.iew.predictedTakenIncorrect         24620                       # Number of branches that were predicted taken incorrectly
system.cpu0.iew.predictedNotTakenIncorrect        78698                       # Number of branches that were predicted not taken incorrectly
system.cpu0.iew.branchMispredicts              103318                       # Number of branch mispredicts detected at execute
system.cpu0.iew.iewExecutedInsts             19298815                       # Number of executed instructions
system.cpu0.iew.iewExecLoadInsts              2182415                       # Number of load instructions executed
system.cpu0.iew.iewExecSquashedInsts           182741                       # Number of squashed instructions skipped in execute
system.cpu0.iew.exec_swp                            0                       # number of swp insts executed
system.cpu0.iew.exec_nop                            0                       # number of nop insts executed
system.cpu0.iew.exec_refs                     3910937                       # number of memory reference insts executed
system.cpu0.iew.exec_branches                 2334722                       # Number of branches executed
system.cpu0.iew.exec_stores                   1728522                       # Number of stores executed
system.cpu0.iew.exec_rate                    1.649917                       # Inst execution rate
system.cpu0.iew.wb_sent                      19261805                       # cumulative count of insts sent to commit
system.cpu0.iew.wb_count                     19226901                       # cumulative count of insts written-back
system.cpu0.iew.wb_producers                 13230827                       # num instructions producing a value
system.cpu0.iew.wb_consumers                 20605769                       # num instructions consuming a value
system.cpu0.iew.wb_rate                      1.643769                       # insts written-back per cycle
system.cpu0.iew.wb_fanout                    0.642093                       # average fanout of values written-back
system.cpu0.commit.commitSquashedInsts        2139049                       # The number of squashed insts skipped by commit
system.cpu0.commit.commitNonSpecStalls             63                       # The number of times commit has been forced to stall to communicate backwards
system.cpu0.commit.branchMispredicts            85601                       # The number of times a branch was mispredicted
system.cpu0.commit.committed_per_cycle::samples     11320895                       # Number of insts commited each cycle
system.cpu0.commit.committed_per_cycle::mean     1.600780                       # Number of insts commited each cycle
system.cpu0.commit.committed_per_cycle::stdev     2.528083                       # Number of insts commited each cycle
system.cpu0.commit.committed_per_cycle::underflows            0      0.00%      0.00% # Number of insts commited each cycle
system.cpu0.commit.committed_per_cycle::0      6705838     59.23%     59.23% # Number of insts commited each cycle
system.cpu0.commit.committed_per_cycle::1       975391      8.62%     67.85% # Number of insts commited each cycle
system.cpu0.commit.committed_per_cycle::2       700155      6.18%     74.03% # Number of insts commited each cycle
system.cpu0.commit.committed_per_cycle::3       967873      8.55%     82.58% # Number of insts commited each cycle
system.cpu0.commit.committed_per_cycle::4       344229      3.04%     85.62% # Number of insts commited each cycle
system.cpu0.commit.committed_per_cycle::5       352199      3.11%     88.74% # Number of insts commited each cycle
system.cpu0.commit.committed_per_cycle::6       200346      1.77%     90.51% # Number of insts commited each cycle
system.cpu0.commit.committed_per_cycle::7        95958      0.85%     91.35% # Number of insts commited each cycle
system.cpu0.commit.committed_per_cycle::8       978906      8.65%    100.00% # Number of insts commited each cycle
system.cpu0.commit.committed_per_cycle::overflows            0      0.00%    100.00% # Number of insts commited each cycle
system.cpu0.commit.committed_per_cycle::min_value            0                       # Number of insts commited each cycle
system.cpu0.commit.committed_per_cycle::max_value            8                       # Number of insts commited each cycle
system.cpu0.commit.committed_per_cycle::total     11320895                       # Number of insts commited each cycle
system.cpu0.commit.committedInsts             9559820                       # Number of instructions committed
system.cpu0.commit.committedOps              18122261                       # Number of ops (including micro ops) committed
system.cpu0.commit.swp_count                        0                       # Number of s/w prefetches committed
system.cpu0.commit.refs                       3658594                       # Number of memory references committed
system.cpu0.commit.loads                      2024647                       # Number of loads committed
system.cpu0.commit.membars                         24                       # Number of memory barriers committed
system.cpu0.commit.branches                   2255739                       # Number of branches committed
system.cpu0.commit.vec_insts                        0                       # Number of committed Vector instructions.
system.cpu0.commit.fp_insts                    184897                       # Number of committed floating point instructions.
system.cpu0.commit.int_insts                 17937985                       # Number of committed integer instructions.
system.cpu0.commit.function_calls              102142                       # Number of function calls committed.
system.cpu0.commit.op_class_0::No_OpClass        62599      0.35%      0.35% # Class of committed instruction
system.cpu0.commit.op_class_0::IntAlu        14214076     78.43%     78.78% # Class of committed instruction
system.cpu0.commit.op_class_0::IntMult          39770      0.22%     79.00% # Class of committed instruction
system.cpu0.commit.op_class_0::IntDiv              28      0.00%     79.00% # Class of committed instruction
system.cpu0.commit.op_class_0::FloatAdd        147194      0.81%     79.81% # Class of committed instruction
system.cpu0.commit.op_class_0::FloatCmp             0      0.00%     79.81% # Class of committed instruction
system.cpu0.commit.op_class_0::FloatCvt             0      0.00%     79.81% # Class of committed instruction
system.cpu0.commit.op_class_0::FloatMult            0      0.00%     79.81% # Class of committed instruction
system.cpu0.commit.op_class_0::FloatMultAcc            0      0.00%     79.81% # Class of committed instruction
system.cpu0.commit.op_class_0::FloatDiv             0      0.00%     79.81% # Class of committed instruction
system.cpu0.commit.op_class_0::FloatMisc            0      0.00%     79.81% # Class of committed instruction
system.cpu0.commit.op_class_0::FloatSqrt            0      0.00%     79.81% # Class of committed instruction
system.cpu0.commit.op_class_0::SimdAdd              0      0.00%     79.81% # Class of committed instruction
system.cpu0.commit.op_class_0::SimdAddAcc            0      0.00%     79.81% # Class of committed instruction
system.cpu0.commit.op_class_0::SimdAlu              0      0.00%     79.81% # Class of committed instruction
system.cpu0.commit.op_class_0::SimdCmp              0      0.00%     79.81% # Class of committed instruction
system.cpu0.commit.op_class_0::SimdCvt              0      0.00%     79.81% # Class of committed instruction
system.cpu0.commit.op_class_0::SimdMisc             0      0.00%     79.81% # Class of committed instruction
system.cpu0.commit.op_class_0::SimdMult             0      0.00%     79.81% # Class of committed instruction
system.cpu0.commit.op_class_0::SimdMultAcc            0      0.00%     79.81% # Class of committed instruction
system.cpu0.commit.op_class_0::SimdShift            0      0.00%     79.81% # Class of committed instruction
system.cpu0.commit.op_class_0::SimdShiftAcc            0      0.00%     79.81% # Class of committed instruction
system.cpu0.commit.op_class_0::SimdSqrt             0      0.00%     79.81% # Class of committed instruction
system.cpu0.commit.op_class_0::SimdFloatAdd            0      0.00%     79.81% # Class of committed instruction
system.cpu0.commit.op_class_0::SimdFloatAlu            0      0.00%     79.81% # Class of committed instruction
system.cpu0.commit.op_class_0::SimdFloatCmp            0      0.00%     79.81% # Class of committed instruction
system.cpu0.commit.op_class_0::SimdFloatCvt            0      0.00%     79.81% # Class of committed instruction
system.cpu0.commit.op_class_0::SimdFloatDiv            0      0.00%     79.81% # Class of committed instruction
system.cpu0.commit.op_class_0::SimdFloatMisc            0      0.00%     79.81% # Class of committed instruction
system.cpu0.commit.op_class_0::SimdFloatMult            0      0.00%     79.81% # Class of committed instruction
system.cpu0.commit.op_class_0::SimdFloatMultAcc            0      0.00%     79.81% # Class of committed instruction
system.cpu0.commit.op_class_0::SimdFloatSqrt            0      0.00%     79.81% # Class of committed instruction
system.cpu0.commit.op_class_0::MemRead        1999109     11.03%     90.84% # Class of committed instruction
system.cpu0.commit.op_class_0::MemWrite       1633787      9.02%     99.86% # Class of committed instruction
system.cpu0.commit.op_class_0::FloatMemRead        25538      0.14%    100.00% # Class of committed instruction
system.cpu0.commit.op_class_0::FloatMemWrite          160      0.00%    100.00% # Class of committed instruction
system.cpu0.commit.op_class_0::IprAccess            0      0.00%    100.00% # Class of committed instruction
system.cpu0.commit.op_class_0::InstPrefetch            0      0.00%    100.00% # Class of committed instruction
system.cpu0.commit.op_class_0::total         18122261                       # Class of committed instruction
system.cpu0.commit.bw_lim_events               978906                       # number cycles where commit BW limit reached
system.cpu0.rob.rob_reads                    30603299                       # The number of ROB reads
system.cpu0.rob.rob_writes                   40837341                       # The number of ROB writes
system.cpu0.timesIdled                            365                       # Number of times that the entire CPU went into an idle state and unscheduled itself
system.cpu0.idleCycles                          62630                       # Total number of cycles that the CPU has spent unscheduled due to idling
system.cpu0.committedInsts                    9559820                       # Number of Instructions Simulated
system.cpu0.committedOps                     18122261                       # Number of Ops (including micro ops) Simulated
system.cpu0.cpi                              1.223542                       # CPI: Cycles Per Instruction
system.cpu0.cpi_total                        1.223542                       # CPI: Total CPI of All Threads
system.cpu0.ipc                              0.817299                       # IPC: Instructions Per Cycle
system.cpu0.ipc_total                        0.817299                       # IPC: Total IPC of All Threads
system.cpu0.int_regfile_reads                28595034                       # number of integer regfile reads
system.cpu0.int_regfile_writes               14990229                       # number of integer regfile writes
system.cpu0.fp_regfile_reads                   298689                       # number of floating regfile reads
system.cpu0.fp_regfile_writes                  168212                       # number of floating regfile writes
system.cpu0.cc_regfile_reads                 11426124                       # number of cc regfile reads
system.cpu0.cc_regfile_writes                 5656771                       # number of cc regfile writes
system.cpu0.misc_regfile_reads                8546777                       # number of misc regfile reads
system.cpu0.dcache.tags.pwrStateResidencyTicks::UNDEFINED   3895047387                       # Cumulative time (in ticks) in various power states
system.cpu0.dcache.tags.replacements            38089                       # number of replacements
system.cpu0.dcache.tags.tagsinuse          507.471194                       # Cycle average of tags in use
system.cpu0.dcache.tags.total_refs            3326506                       # Total number of references to valid blocks.
system.cpu0.dcache.tags.sampled_refs            38601                       # Sample count of references to valid blocks.
system.cpu0.dcache.tags.avg_refs            86.176679                       # Average number of references to valid blocks.
system.cpu0.dcache.tags.warmup_cycle           150183                       # Cycle when the warmup percentage was hit.
system.cpu0.dcache.tags.occ_blocks::cpu0.data   507.471194                       # Average occupied blocks per requestor
system.cpu0.dcache.tags.occ_percent::cpu0.data     0.991155                       # Average percentage of cache occupancy
system.cpu0.dcache.tags.occ_percent::total     0.991155                       # Average percentage of cache occupancy
system.cpu0.dcache.tags.occ_task_id_blocks::1024          512                       # Occupied blocks per task id
system.cpu0.dcache.tags.age_task_id_blocks_1024::0           86                       # Occupied blocks per task id
system.cpu0.dcache.tags.age_task_id_blocks_1024::1          387                       # Occupied blocks per task id
system.cpu0.dcache.tags.age_task_id_blocks_1024::3           39                       # Occupied blocks per task id
system.cpu0.dcache.tags.occ_task_id_percent::1024            1                       # Percentage of cache occupancy per task id
system.cpu0.dcache.tags.tag_accesses         27095521                       # Number of tag accesses
system.cpu0.dcache.tags.data_accesses        27095521                       # Number of data accesses
system.cpu0.dcache.pwrStateResidencyTicks::UNDEFINED   3895047387                       # Cumulative time (in ticks) in various power states
system.cpu0.dcache.ReadReq_hits::cpu0.data      1721890                       # number of ReadReq hits
system.cpu0.dcache.ReadReq_hits::total        1721890                       # number of ReadReq hits
system.cpu0.dcache.WriteReq_hits::cpu0.data      1604608                       # number of WriteReq hits
system.cpu0.dcache.WriteReq_hits::total       1604608                       # number of WriteReq hits
system.cpu0.dcache.demand_hits::cpu0.data      3326498                       # number of demand (read+write) hits
system.cpu0.dcache.demand_hits::total         3326498                       # number of demand (read+write) hits
system.cpu0.dcache.overall_hits::cpu0.data      3326498                       # number of overall hits
system.cpu0.dcache.overall_hits::total        3326498                       # number of overall hits
system.cpu0.dcache.ReadReq_misses::cpu0.data        26306                       # number of ReadReq misses
system.cpu0.dcache.ReadReq_misses::total        26306                       # number of ReadReq misses
system.cpu0.dcache.WriteReq_misses::cpu0.data        29311                       # number of WriteReq misses
system.cpu0.dcache.WriteReq_misses::total        29311                       # number of WriteReq misses
system.cpu0.dcache.demand_misses::cpu0.data        55617                       # number of demand (read+write) misses
system.cpu0.dcache.demand_misses::total         55617                       # number of demand (read+write) misses
system.cpu0.dcache.overall_misses::cpu0.data        55617                       # number of overall misses
system.cpu0.dcache.overall_misses::total        55617                       # number of overall misses
system.cpu0.dcache.ReadReq_miss_latency::cpu0.data   1945458927                       # number of ReadReq miss cycles
system.cpu0.dcache.ReadReq_miss_latency::total   1945458927                       # number of ReadReq miss cycles
system.cpu0.dcache.WriteReq_miss_latency::cpu0.data   2039861093                       # number of WriteReq miss cycles
system.cpu0.dcache.WriteReq_miss_latency::total   2039861093                       # number of WriteReq miss cycles
system.cpu0.dcache.demand_miss_latency::cpu0.data   3985320020                       # number of demand (read+write) miss cycles
system.cpu0.dcache.demand_miss_latency::total   3985320020                       # number of demand (read+write) miss cycles
system.cpu0.dcache.overall_miss_latency::cpu0.data   3985320020                       # number of overall miss cycles
system.cpu0.dcache.overall_miss_latency::total   3985320020                       # number of overall miss cycles
system.cpu0.dcache.ReadReq_accesses::cpu0.data      1748196                       # number of ReadReq accesses(hits+misses)
system.cpu0.dcache.ReadReq_accesses::total      1748196                       # number of ReadReq accesses(hits+misses)
system.cpu0.dcache.WriteReq_accesses::cpu0.data      1633919                       # number of WriteReq accesses(hits+misses)
system.cpu0.dcache.WriteReq_accesses::total      1633919                       # number of WriteReq accesses(hits+misses)
system.cpu0.dcache.demand_accesses::cpu0.data      3382115                       # number of demand (read+write) accesses
system.cpu0.dcache.demand_accesses::total      3382115                       # number of demand (read+write) accesses
system.cpu0.dcache.overall_accesses::cpu0.data      3382115                       # number of overall (read+write) accesses
system.cpu0.dcache.overall_accesses::total      3382115                       # number of overall (read+write) accesses
system.cpu0.dcache.ReadReq_miss_rate::cpu0.data     0.015048                       # miss rate for ReadReq accesses
system.cpu0.dcache.ReadReq_miss_rate::total     0.015048                       # miss rate for ReadReq accesses
system.cpu0.dcache.WriteReq_miss_rate::cpu0.data     0.017939                       # miss rate for WriteReq accesses
system.cpu0.dcache.WriteReq_miss_rate::total     0.017939                       # miss rate for WriteReq accesses
system.cpu0.dcache.demand_miss_rate::cpu0.data     0.016444                       # miss rate for demand accesses
system.cpu0.dcache.demand_miss_rate::total     0.016444                       # miss rate for demand accesses
system.cpu0.dcache.overall_miss_rate::cpu0.data     0.016444                       # miss rate for overall accesses
system.cpu0.dcache.overall_miss_rate::total     0.016444                       # miss rate for overall accesses
system.cpu0.dcache.ReadReq_avg_miss_latency::cpu0.data 73954.950468                       # average ReadReq miss latency
system.cpu0.dcache.ReadReq_avg_miss_latency::total 73954.950468                       # average ReadReq miss latency
system.cpu0.dcache.WriteReq_avg_miss_latency::cpu0.data 69593.705196                       # average WriteReq miss latency
system.cpu0.dcache.WriteReq_avg_miss_latency::total 69593.705196                       # average WriteReq miss latency
system.cpu0.dcache.demand_avg_miss_latency::cpu0.data 71656.508262                       # average overall miss latency
system.cpu0.dcache.demand_avg_miss_latency::total 71656.508262                       # average overall miss latency
system.cpu0.dcache.overall_avg_miss_latency::cpu0.data 71656.508262                       # average overall miss latency
system.cpu0.dcache.overall_avg_miss_latency::total 71656.508262                       # average overall miss latency
system.cpu0.dcache.blocked_cycles::no_mshrs         3065                       # number of cycles access was blocked
system.cpu0.dcache.blocked_cycles::no_targets            0                       # number of cycles access was blocked
system.cpu0.dcache.blocked::no_mshrs               37                       # number of cycles access was blocked
system.cpu0.dcache.blocked::no_targets              0                       # number of cycles access was blocked
system.cpu0.dcache.avg_blocked_cycles::no_mshrs    82.837838                       # average number of cycles each access was blocked
system.cpu0.dcache.avg_blocked_cycles::no_targets          nan                       # average number of cycles each access was blocked
system.cpu0.dcache.writebacks::writebacks        37125                       # number of writebacks
system.cpu0.dcache.writebacks::total            37125                       # number of writebacks
system.cpu0.dcache.ReadReq_mshr_hits::cpu0.data        11776                       # number of ReadReq MSHR hits
system.cpu0.dcache.ReadReq_mshr_hits::total        11776                       # number of ReadReq MSHR hits
system.cpu0.dcache.WriteReq_mshr_hits::cpu0.data         5232                       # number of WriteReq MSHR hits
system.cpu0.dcache.WriteReq_mshr_hits::total         5232                       # number of WriteReq MSHR hits
system.cpu0.dcache.demand_mshr_hits::cpu0.data        17008                       # number of demand (read+write) MSHR hits
system.cpu0.dcache.demand_mshr_hits::total        17008                       # number of demand (read+write) MSHR hits
system.cpu0.dcache.overall_mshr_hits::cpu0.data        17008                       # number of overall MSHR hits
system.cpu0.dcache.overall_mshr_hits::total        17008                       # number of overall MSHR hits
system.cpu0.dcache.ReadReq_mshr_misses::cpu0.data        14530                       # number of ReadReq MSHR misses
system.cpu0.dcache.ReadReq_mshr_misses::total        14530                       # number of ReadReq MSHR misses
system.cpu0.dcache.WriteReq_mshr_misses::cpu0.data        24079                       # number of WriteReq MSHR misses
system.cpu0.dcache.WriteReq_mshr_misses::total        24079                       # number of WriteReq MSHR misses
system.cpu0.dcache.demand_mshr_misses::cpu0.data        38609                       # number of demand (read+write) MSHR misses
system.cpu0.dcache.demand_mshr_misses::total        38609                       # number of demand (read+write) MSHR misses
system.cpu0.dcache.overall_mshr_misses::cpu0.data        38609                       # number of overall MSHR misses
system.cpu0.dcache.overall_mshr_misses::total        38609                       # number of overall MSHR misses
system.cpu0.dcache.ReadReq_mshr_miss_latency::cpu0.data   1088775135                       # number of ReadReq MSHR miss cycles
system.cpu0.dcache.ReadReq_mshr_miss_latency::total   1088775135                       # number of ReadReq MSHR miss cycles
system.cpu0.dcache.WriteReq_mshr_miss_latency::cpu0.data   1636541153                       # number of WriteReq MSHR miss cycles
system.cpu0.dcache.WriteReq_mshr_miss_latency::total   1636541153                       # number of WriteReq MSHR miss cycles
system.cpu0.dcache.demand_mshr_miss_latency::cpu0.data   2725316288                       # number of demand (read+write) MSHR miss cycles
system.cpu0.dcache.demand_mshr_miss_latency::total   2725316288                       # number of demand (read+write) MSHR miss cycles
system.cpu0.dcache.overall_mshr_miss_latency::cpu0.data   2725316288                       # number of overall MSHR miss cycles
system.cpu0.dcache.overall_mshr_miss_latency::total   2725316288                       # number of overall MSHR miss cycles
system.cpu0.dcache.ReadReq_mshr_miss_rate::cpu0.data     0.008311                       # mshr miss rate for ReadReq accesses
system.cpu0.dcache.ReadReq_mshr_miss_rate::total     0.008311                       # mshr miss rate for ReadReq accesses
system.cpu0.dcache.WriteReq_mshr_miss_rate::cpu0.data     0.014737                       # mshr miss rate for WriteReq accesses
system.cpu0.dcache.WriteReq_mshr_miss_rate::total     0.014737                       # mshr miss rate for WriteReq accesses
system.cpu0.dcache.demand_mshr_miss_rate::cpu0.data     0.011416                       # mshr miss rate for demand accesses
system.cpu0.dcache.demand_mshr_miss_rate::total     0.011416                       # mshr miss rate for demand accesses
system.cpu0.dcache.overall_mshr_miss_rate::cpu0.data     0.011416                       # mshr miss rate for overall accesses
system.cpu0.dcache.overall_mshr_miss_rate::total     0.011416                       # mshr miss rate for overall accesses
system.cpu0.dcache.ReadReq_avg_mshr_miss_latency::cpu0.data 74932.906745                       # average ReadReq mshr miss latency
system.cpu0.dcache.ReadReq_avg_mshr_miss_latency::total 74932.906745                       # average ReadReq mshr miss latency
system.cpu0.dcache.WriteReq_avg_mshr_miss_latency::cpu0.data 67965.494954                       # average WriteReq mshr miss latency
system.cpu0.dcache.WriteReq_avg_mshr_miss_latency::total 67965.494954                       # average WriteReq mshr miss latency
system.cpu0.dcache.demand_avg_mshr_miss_latency::cpu0.data 70587.590665                       # average overall mshr miss latency
system.cpu0.dcache.demand_avg_mshr_miss_latency::total 70587.590665                       # average overall mshr miss latency
system.cpu0.dcache.overall_avg_mshr_miss_latency::cpu0.data 70587.590665                       # average overall mshr miss latency
system.cpu0.dcache.overall_avg_mshr_miss_latency::total 70587.590665                       # average overall mshr miss latency
system.cpu0.dtb_walker_cache.tags.pwrStateResidencyTicks::UNDEFINED   3895047387                       # Cumulative time (in ticks) in various power states
system.cpu0.dtb_walker_cache.tags.replacements            0                       # number of replacements
system.cpu0.dtb_walker_cache.tags.tagsinuse            0                       # Cycle average of tags in use
system.cpu0.dtb_walker_cache.tags.total_refs            0                       # Total number of references to valid blocks.
system.cpu0.dtb_walker_cache.tags.sampled_refs            0                       # Sample count of references to valid blocks.
system.cpu0.dtb_walker_cache.tags.avg_refs          nan                       # Average number of references to valid blocks.
system.cpu0.dtb_walker_cache.tags.warmup_cycle            0                       # Cycle when the warmup percentage was hit.
system.cpu0.dtb_walker_cache.tags.tag_accesses            0                       # Number of tag accesses
system.cpu0.dtb_walker_cache.tags.data_accesses            0                       # Number of data accesses
system.cpu0.dtb_walker_cache.pwrStateResidencyTicks::UNDEFINED   3895047387                       # Cumulative time (in ticks) in various power states
system.cpu0.dtb_walker_cache.blocked_cycles::no_mshrs            0                       # number of cycles access was blocked
system.cpu0.dtb_walker_cache.blocked_cycles::no_targets            0                       # number of cycles access was blocked
system.cpu0.dtb_walker_cache.blocked::no_mshrs            0                       # number of cycles access was blocked
system.cpu0.dtb_walker_cache.blocked::no_targets            0                       # number of cycles access was blocked
system.cpu0.dtb_walker_cache.avg_blocked_cycles::no_mshrs          nan                       # average number of cycles each access was blocked
system.cpu0.dtb_walker_cache.avg_blocked_cycles::no_targets          nan                       # average number of cycles each access was blocked
system.cpu0.icache.tags.pwrStateResidencyTicks::UNDEFINED   3895047387                       # Cumulative time (in ticks) in various power states
system.cpu0.icache.tags.replacements              191                       # number of replacements
system.cpu0.icache.tags.tagsinuse          496.953104                       # Cycle average of tags in use
system.cpu0.icache.tags.total_refs            1800089                       # Total number of references to valid blocks.
system.cpu0.icache.tags.sampled_refs              691                       # Sample count of references to valid blocks.
system.cpu0.icache.tags.avg_refs          2605.049204                       # Average number of references to valid blocks.
system.cpu0.icache.tags.warmup_cycle            76257                       # Cycle when the warmup percentage was hit.
system.cpu0.icache.tags.occ_blocks::cpu0.inst   496.953104                       # Average occupied blocks per requestor
system.cpu0.icache.tags.occ_percent::cpu0.inst     0.970612                       # Average percentage of cache occupancy
system.cpu0.icache.tags.occ_percent::total     0.970612                       # Average percentage of cache occupancy
system.cpu0.icache.tags.occ_task_id_blocks::1024          500                       # Occupied blocks per task id
system.cpu0.icache.tags.age_task_id_blocks_1024::0            8                       # Occupied blocks per task id
system.cpu0.icache.tags.age_task_id_blocks_1024::3          492                       # Occupied blocks per task id
system.cpu0.icache.tags.occ_task_id_percent::1024     0.976562                       # Percentage of cache occupancy per task id
system.cpu0.icache.tags.tag_accesses         14408308                       # Number of tag accesses
system.cpu0.icache.tags.data_accesses        14408308                       # Number of data accesses
system.cpu0.icache.pwrStateResidencyTicks::UNDEFINED   3895047387                       # Cumulative time (in ticks) in various power states
system.cpu0.icache.ReadReq_hits::cpu0.inst      1800089                       # number of ReadReq hits
system.cpu0.icache.ReadReq_hits::total        1800089                       # number of ReadReq hits
system.cpu0.icache.demand_hits::cpu0.inst      1800089                       # number of demand (read+write) hits
system.cpu0.icache.demand_hits::total         1800089                       # number of demand (read+write) hits
system.cpu0.icache.overall_hits::cpu0.inst      1800089                       # number of overall hits
system.cpu0.icache.overall_hits::total        1800089                       # number of overall hits
system.cpu0.icache.ReadReq_misses::cpu0.inst          863                       # number of ReadReq misses
system.cpu0.icache.ReadReq_misses::total          863                       # number of ReadReq misses
system.cpu0.icache.demand_misses::cpu0.inst          863                       # number of demand (read+write) misses
system.cpu0.icache.demand_misses::total           863                       # number of demand (read+write) misses
system.cpu0.icache.overall_misses::cpu0.inst          863                       # number of overall misses
system.cpu0.icache.overall_misses::total          863                       # number of overall misses
system.cpu0.icache.ReadReq_miss_latency::cpu0.inst     58059215                       # number of ReadReq miss cycles
system.cpu0.icache.ReadReq_miss_latency::total     58059215                       # number of ReadReq miss cycles
system.cpu0.icache.demand_miss_latency::cpu0.inst     58059215                       # number of demand (read+write) miss cycles
system.cpu0.icache.demand_miss_latency::total     58059215                       # number of demand (read+write) miss cycles
system.cpu0.icache.overall_miss_latency::cpu0.inst     58059215                       # number of overall miss cycles
system.cpu0.icache.overall_miss_latency::total     58059215                       # number of overall miss cycles
system.cpu0.icache.ReadReq_accesses::cpu0.inst      1800952                       # number of ReadReq accesses(hits+misses)
system.cpu0.icache.ReadReq_accesses::total      1800952                       # number of ReadReq accesses(hits+misses)
system.cpu0.icache.demand_accesses::cpu0.inst      1800952                       # number of demand (read+write) accesses
system.cpu0.icache.demand_accesses::total      1800952                       # number of demand (read+write) accesses
system.cpu0.icache.overall_accesses::cpu0.inst      1800952                       # number of overall (read+write) accesses
system.cpu0.icache.overall_accesses::total      1800952                       # number of overall (read+write) accesses
system.cpu0.icache.ReadReq_miss_rate::cpu0.inst     0.000479                       # miss rate for ReadReq accesses
system.cpu0.icache.ReadReq_miss_rate::total     0.000479                       # miss rate for ReadReq accesses
system.cpu0.icache.demand_miss_rate::cpu0.inst     0.000479                       # miss rate for demand accesses
system.cpu0.icache.demand_miss_rate::total     0.000479                       # miss rate for demand accesses
system.cpu0.icache.overall_miss_rate::cpu0.inst     0.000479                       # miss rate for overall accesses
system.cpu0.icache.overall_miss_rate::total     0.000479                       # miss rate for overall accesses
system.cpu0.icache.ReadReq_avg_miss_latency::cpu0.inst 67276.031286                       # average ReadReq miss latency
system.cpu0.icache.ReadReq_avg_miss_latency::total 67276.031286                       # average ReadReq miss latency
system.cpu0.icache.demand_avg_miss_latency::cpu0.inst 67276.031286                       # average overall miss latency
system.cpu0.icache.demand_avg_miss_latency::total 67276.031286                       # average overall miss latency
system.cpu0.icache.overall_avg_miss_latency::cpu0.inst 67276.031286                       # average overall miss latency
system.cpu0.icache.overall_avg_miss_latency::total 67276.031286                       # average overall miss latency
system.cpu0.icache.blocked_cycles::no_mshrs          863                       # number of cycles access was blocked
system.cpu0.icache.blocked_cycles::no_targets            0                       # number of cycles access was blocked
system.cpu0.icache.blocked::no_mshrs                9                       # number of cycles access was blocked
system.cpu0.icache.blocked::no_targets              0                       # number of cycles access was blocked
system.cpu0.icache.avg_blocked_cycles::no_mshrs    95.888889                       # average number of cycles each access was blocked
system.cpu0.icache.avg_blocked_cycles::no_targets          nan                       # average number of cycles each access was blocked
system.cpu0.icache.writebacks::writebacks          191                       # number of writebacks
system.cpu0.icache.writebacks::total              191                       # number of writebacks
system.cpu0.icache.ReadReq_mshr_hits::cpu0.inst          171                       # number of ReadReq MSHR hits
system.cpu0.icache.ReadReq_mshr_hits::total          171                       # number of ReadReq MSHR hits
system.cpu0.icache.demand_mshr_hits::cpu0.inst          171                       # number of demand (read+write) MSHR hits
system.cpu0.icache.demand_mshr_hits::total          171                       # number of demand (read+write) MSHR hits
system.cpu0.icache.overall_mshr_hits::cpu0.inst          171                       # number of overall MSHR hits
system.cpu0.icache.overall_mshr_hits::total          171                       # number of overall MSHR hits
system.cpu0.icache.ReadReq_mshr_misses::cpu0.inst          692                       # number of ReadReq MSHR misses
system.cpu0.icache.ReadReq_mshr_misses::total          692                       # number of ReadReq MSHR misses
system.cpu0.icache.demand_mshr_misses::cpu0.inst          692                       # number of demand (read+write) MSHR misses
system.cpu0.icache.demand_mshr_misses::total          692                       # number of demand (read+write) MSHR misses
system.cpu0.icache.overall_mshr_misses::cpu0.inst          692                       # number of overall MSHR misses
system.cpu0.icache.overall_mshr_misses::total          692                       # number of overall MSHR misses
system.cpu0.icache.ReadReq_mshr_miss_latency::cpu0.inst     47467152                       # number of ReadReq MSHR miss cycles
system.cpu0.icache.ReadReq_mshr_miss_latency::total     47467152                       # number of ReadReq MSHR miss cycles
system.cpu0.icache.demand_mshr_miss_latency::cpu0.inst     47467152                       # number of demand (read+write) MSHR miss cycles
system.cpu0.icache.demand_mshr_miss_latency::total     47467152                       # number of demand (read+write) MSHR miss cycles
system.cpu0.icache.overall_mshr_miss_latency::cpu0.inst     47467152                       # number of overall MSHR miss cycles
system.cpu0.icache.overall_mshr_miss_latency::total     47467152                       # number of overall MSHR miss cycles
system.cpu0.icache.ReadReq_mshr_miss_rate::cpu0.inst     0.000384                       # mshr miss rate for ReadReq accesses
system.cpu0.icache.ReadReq_mshr_miss_rate::total     0.000384                       # mshr miss rate for ReadReq accesses
system.cpu0.icache.demand_mshr_miss_rate::cpu0.inst     0.000384                       # mshr miss rate for demand accesses
system.cpu0.icache.demand_mshr_miss_rate::total     0.000384                       # mshr miss rate for demand accesses
system.cpu0.icache.overall_mshr_miss_rate::cpu0.inst     0.000384                       # mshr miss rate for overall accesses
system.cpu0.icache.overall_mshr_miss_rate::total     0.000384                       # mshr miss rate for overall accesses
system.cpu0.icache.ReadReq_avg_mshr_miss_latency::cpu0.inst 68594.150289                       # average ReadReq mshr miss latency
system.cpu0.icache.ReadReq_avg_mshr_miss_latency::total 68594.150289                       # average ReadReq mshr miss latency
system.cpu0.icache.demand_avg_mshr_miss_latency::cpu0.inst 68594.150289                       # average overall mshr miss latency
system.cpu0.icache.demand_avg_mshr_miss_latency::total 68594.150289                       # average overall mshr miss latency
system.cpu0.icache.overall_avg_mshr_miss_latency::cpu0.inst 68594.150289                       # average overall mshr miss latency
system.cpu0.icache.overall_avg_mshr_miss_latency::total 68594.150289                       # average overall mshr miss latency
system.cpu0.itb_walker_cache.tags.pwrStateResidencyTicks::UNDEFINED   3895047387                       # Cumulative time (in ticks) in various power states
system.cpu0.itb_walker_cache.tags.replacements            0                       # number of replacements
system.cpu0.itb_walker_cache.tags.tagsinuse            0                       # Cycle average of tags in use
system.cpu0.itb_walker_cache.tags.total_refs            0                       # Total number of references to valid blocks.
system.cpu0.itb_walker_cache.tags.sampled_refs            0                       # Sample count of references to valid blocks.
system.cpu0.itb_walker_cache.tags.avg_refs          nan                       # Average number of references to valid blocks.
system.cpu0.itb_walker_cache.tags.warmup_cycle            0                       # Cycle when the warmup percentage was hit.
system.cpu0.itb_walker_cache.tags.tag_accesses            0                       # Number of tag accesses
system.cpu0.itb_walker_cache.tags.data_accesses            0                       # Number of data accesses
system.cpu0.itb_walker_cache.pwrStateResidencyTicks::UNDEFINED   3895047387                       # Cumulative time (in ticks) in various power states
system.cpu0.itb_walker_cache.blocked_cycles::no_mshrs            0                       # number of cycles access was blocked
system.cpu0.itb_walker_cache.blocked_cycles::no_targets            0                       # number of cycles access was blocked
system.cpu0.itb_walker_cache.blocked::no_mshrs            0                       # number of cycles access was blocked
system.cpu0.itb_walker_cache.blocked::no_targets            0                       # number of cycles access was blocked
system.cpu0.itb_walker_cache.avg_blocked_cycles::no_mshrs          nan                       # average number of cycles each access was blocked
system.cpu0.itb_walker_cache.avg_blocked_cycles::no_targets          nan                       # average number of cycles each access was blocked
system.cpu0.l2cache.tags.pwrStateResidencyTicks::UNDEFINED   3895047387                       # Cumulative time (in ticks) in various power states
system.cpu0.l2cache.tags.replacements           35184                       # number of replacements
system.cpu0.l2cache.tags.tagsinuse        3924.282264                       # Cycle average of tags in use
system.cpu0.l2cache.tags.total_refs             38280                       # Total number of references to valid blocks.
system.cpu0.l2cache.tags.sampled_refs           39280                       # Sample count of references to valid blocks.
system.cpu0.l2cache.tags.avg_refs            0.974542                       # Average number of references to valid blocks.
system.cpu0.l2cache.tags.warmup_cycle           73000                       # Cycle when the warmup percentage was hit.
system.cpu0.l2cache.tags.occ_blocks::writebacks     1.791586                       # Average occupied blocks per requestor
system.cpu0.l2cache.tags.occ_blocks::cpu0.inst    53.951780                       # Average occupied blocks per requestor
system.cpu0.l2cache.tags.occ_blocks::cpu0.data  3868.538898                       # Average occupied blocks per requestor
system.cpu0.l2cache.tags.occ_percent::writebacks     0.000437                       # Average percentage of cache occupancy
system.cpu0.l2cache.tags.occ_percent::cpu0.inst     0.013172                       # Average percentage of cache occupancy
system.cpu0.l2cache.tags.occ_percent::cpu0.data     0.944468                       # Average percentage of cache occupancy
system.cpu0.l2cache.tags.occ_percent::total     0.958077                       # Average percentage of cache occupancy
system.cpu0.l2cache.tags.occ_task_id_blocks::1024         4096                       # Occupied blocks per task id
system.cpu0.l2cache.tags.age_task_id_blocks_1024::0          101                       # Occupied blocks per task id
system.cpu0.l2cache.tags.age_task_id_blocks_1024::1          768                       # Occupied blocks per task id
system.cpu0.l2cache.tags.age_task_id_blocks_1024::2         3227                       # Occupied blocks per task id
system.cpu0.l2cache.tags.occ_task_id_percent::1024            1                       # Percentage of cache occupancy per task id
system.cpu0.l2cache.tags.tag_accesses          349532                       # Number of tag accesses
system.cpu0.l2cache.tags.data_accesses         349532                       # Number of data accesses
system.cpu0.l2cache.pwrStateResidencyTicks::UNDEFINED   3895047387                       # Cumulative time (in ticks) in various power states
system.cpu0.l2cache.WritebackDirty_hits::writebacks        37125                       # number of WritebackDirty hits
system.cpu0.l2cache.WritebackDirty_hits::total        37125                       # number of WritebackDirty hits
system.cpu0.l2cache.WritebackClean_hits::writebacks          189                       # number of WritebackClean hits
system.cpu0.l2cache.WritebackClean_hits::total          189                       # number of WritebackClean hits
system.cpu0.l2cache.UpgradeReq_hits::cpu0.data            7                       # number of UpgradeReq hits
system.cpu0.l2cache.UpgradeReq_hits::total            7                       # number of UpgradeReq hits
system.cpu0.l2cache.ReadCleanReq_hits::cpu0.inst           12                       # number of ReadCleanReq hits
system.cpu0.l2cache.ReadCleanReq_hits::total           12                       # number of ReadCleanReq hits
system.cpu0.l2cache.ReadSharedReq_hits::cpu0.data           32                       # number of ReadSharedReq hits
system.cpu0.l2cache.ReadSharedReq_hits::total           32                       # number of ReadSharedReq hits
system.cpu0.l2cache.demand_hits::cpu0.inst           12                       # number of demand (read+write) hits
system.cpu0.l2cache.demand_hits::cpu0.data           32                       # number of demand (read+write) hits
system.cpu0.l2cache.demand_hits::total             44                       # number of demand (read+write) hits
system.cpu0.l2cache.overall_hits::cpu0.inst           12                       # number of overall hits
system.cpu0.l2cache.overall_hits::cpu0.data           32                       # number of overall hits
[...]
system.l3.demand_mshr_miss_latency::cpu3.inst     36602954                       # number of demand (read+write) MSHR miss cycles
system.l3.demand_mshr_miss_latency::cpu3.data   2083921500                       # number of demand (read+write) MSHR miss cycles
system.l3.demand_mshr_miss_latency::total   8559507551                       # number of demand (read+write) MSHR miss cycles
system.l3.overall_mshr_miss_latency::cpu0.inst     37238885                       # number of overall MSHR miss cycles
system.l3.overall_mshr_miss_latency::cpu0.data   2125453811                       # number of overall MSHR miss cycles
system.l3.overall_mshr_miss_latency::cpu1.inst     36924673                       # number of overall MSHR miss cycles
system.l3.overall_mshr_miss_latency::cpu1.data   2126182854                       # number of overall MSHR miss cycles
system.l3.overall_mshr_miss_latency::cpu2.inst     33716507                       # number of overall MSHR miss cycles
system.l3.overall_mshr_miss_latency::cpu2.data   2079466367                       # number of overall MSHR miss cycles
system.l3.overall_mshr_miss_latency::cpu3.inst     36602954                       # number of overall MSHR miss cycles
system.l3.overall_mshr_miss_latency::cpu3.data   2083921500                       # number of overall MSHR miss cycles
system.l3.overall_mshr_miss_latency::total   8559507551                       # number of overall MSHR miss cycles
system.l3.CleanEvict_mshr_miss_rate::writebacks          inf                       # mshr miss rate for CleanEvict accesses
system.l3.CleanEvict_mshr_miss_rate::total          inf                       # mshr miss rate for CleanEvict accesses
system.l3.ReadExReq_mshr_miss_rate::cpu0.data            1                       # mshr miss rate for ReadExReq accesses
system.l3.ReadExReq_mshr_miss_rate::cpu1.data            1                       # mshr miss rate for ReadExReq accesses
system.l3.ReadExReq_mshr_miss_rate::cpu2.data            1                       # mshr miss rate for ReadExReq accesses
system.l3.ReadExReq_mshr_miss_rate::cpu3.data            1                       # mshr miss rate for ReadExReq accesses
system.l3.ReadExReq_mshr_miss_rate::total            1                       # mshr miss rate for ReadExReq accesses
system.l3.ReadSharedReq_mshr_miss_rate::cpu0.inst     0.992636                       # mshr miss rate for ReadSharedReq accesses
system.l3.ReadSharedReq_mshr_miss_rate::cpu0.data     0.934470                       # mshr miss rate for ReadSharedReq accesses
system.l3.ReadSharedReq_mshr_miss_rate::cpu1.inst     0.993985                       # mshr miss rate for ReadSharedReq accesses
system.l3.ReadSharedReq_mshr_miss_rate::cpu1.data     0.932598                       # mshr miss rate for ReadSharedReq accesses
system.l3.ReadSharedReq_mshr_miss_rate::cpu2.inst     0.995489                       # mshr miss rate for ReadSharedReq accesses
system.l3.ReadSharedReq_mshr_miss_rate::cpu2.data     0.924807                       # mshr miss rate for ReadSharedReq accesses
system.l3.ReadSharedReq_mshr_miss_rate::cpu3.inst     0.994039                       # mshr miss rate for ReadSharedReq accesses
system.l3.ReadSharedReq_mshr_miss_rate::cpu3.data     0.924632                       # mshr miss rate for ReadSharedReq accesses
system.l3.ReadSharedReq_mshr_miss_rate::total     0.932662                       # mshr miss rate for ReadSharedReq accesses
system.l3.demand_mshr_miss_rate::cpu0.inst     0.992636                       # mshr miss rate for demand accesses
system.l3.demand_mshr_miss_rate::cpu0.data     0.980165                       # mshr miss rate for demand accesses
system.l3.demand_mshr_miss_rate::cpu1.inst     0.993985                       # mshr miss rate for demand accesses
system.l3.demand_mshr_miss_rate::cpu1.data     0.980049                       # mshr miss rate for demand accesses
system.l3.demand_mshr_miss_rate::cpu2.inst     0.995489                       # mshr miss rate for demand accesses
system.l3.demand_mshr_miss_rate::cpu2.data     0.977466                       # mshr miss rate for demand accesses
system.l3.demand_mshr_miss_rate::cpu3.inst     0.994039                       # mshr miss rate for demand accesses
system.l3.demand_mshr_miss_rate::cpu3.data     0.977483                       # mshr miss rate for demand accesses
system.l3.demand_mshr_miss_rate::total       0.979045                       # mshr miss rate for demand accesses
system.l3.overall_mshr_miss_rate::cpu0.inst     0.992636                       # mshr miss rate for overall accesses
system.l3.overall_mshr_miss_rate::cpu0.data     0.980165                       # mshr miss rate for overall accesses
system.l3.overall_mshr_miss_rate::cpu1.inst     0.993985                       # mshr miss rate for overall accesses
system.l3.overall_mshr_miss_rate::cpu1.data     0.980049                       # mshr miss rate for overall accesses
system.l3.overall_mshr_miss_rate::cpu2.inst     0.995489                       # mshr miss rate for overall accesses
system.l3.overall_mshr_miss_rate::cpu2.data     0.977466                       # mshr miss rate for overall accesses
system.l3.overall_mshr_miss_rate::cpu3.inst     0.994039                       # mshr miss rate for overall accesses
system.l3.overall_mshr_miss_rate::cpu3.data     0.977483                       # mshr miss rate for overall accesses
system.l3.overall_mshr_miss_rate::total      0.979045                       # mshr miss rate for overall accesses
system.l3.ReadExReq_avg_mshr_miss_latency::cpu0.data 53617.614092                       # average ReadExReq mshr miss latency
system.l3.ReadExReq_avg_mshr_miss_latency::cpu1.data 54634.316882                       # average ReadExReq mshr miss latency
system.l3.ReadExReq_avg_mshr_miss_latency::cpu2.data 51506.450174                       # average ReadExReq mshr miss latency
system.l3.ReadExReq_avg_mshr_miss_latency::cpu3.data 50894.282064                       # average ReadExReq mshr miss latency
system.l3.ReadExReq_avg_mshr_miss_latency::total 52658.372048                       # average ReadExReq mshr miss latency
system.l3.ReadSharedReq_avg_mshr_miss_latency::cpu0.inst 55250.571217                       # average ReadSharedReq mshr miss latency
system.l3.ReadSharedReq_avg_mshr_miss_latency::cpu0.data 62646.262719                       # average ReadSharedReq mshr miss latency
system.l3.ReadSharedReq_avg_mshr_miss_latency::cpu1.inst 55861.835098                       # average ReadSharedReq mshr miss latency
system.l3.ReadSharedReq_avg_mshr_miss_latency::cpu1.data 60232.197297                       # average ReadSharedReq mshr miss latency
system.l3.ReadSharedReq_avg_mshr_miss_latency::cpu2.inst 50931.279456                       # average ReadSharedReq mshr miss latency
system.l3.ReadSharedReq_avg_mshr_miss_latency::cpu2.data 62855.324021                       # average ReadSharedReq mshr miss latency
system.l3.ReadSharedReq_avg_mshr_miss_latency::cpu3.inst 54876.992504                       # average ReadSharedReq mshr miss latency
system.l3.ReadSharedReq_avg_mshr_miss_latency::cpu3.data 64713.370336                       # average ReadSharedReq mshr miss latency
system.l3.ReadSharedReq_avg_mshr_miss_latency::total 62129.115612                       # average ReadSharedReq mshr miss latency
system.l3.demand_avg_mshr_miss_latency::cpu0.inst 55250.571217                       # average overall mshr miss latency
system.l3.demand_avg_mshr_miss_latency::cpu0.data 56222.987276                       # average overall mshr miss latency
system.l3.demand_avg_mshr_miss_latency::cpu1.inst 55861.835098                       # average overall mshr miss latency
system.l3.demand_avg_mshr_miss_latency::cpu1.data 56211.047032                       # average overall mshr miss latency
system.l3.demand_avg_mshr_miss_latency::cpu2.inst 50931.279456                       # average overall mshr miss latency
system.l3.demand_avg_mshr_miss_latency::cpu2.data 54724.239243                       # average overall mshr miss latency
system.l3.demand_avg_mshr_miss_latency::cpu3.inst 54876.992504                       # average overall mshr miss latency
system.l3.demand_avg_mshr_miss_latency::cpu3.data 54799.660776                       # average overall mshr miss latency
system.l3.demand_avg_mshr_miss_latency::total 55465.963913                       # average overall mshr miss latency
system.l3.overall_avg_mshr_miss_latency::cpu0.inst 55250.571217                       # average overall mshr miss latency
system.l3.overall_avg_mshr_miss_latency::cpu0.data 56222.987276                       # average overall mshr miss latency
system.l3.overall_avg_mshr_miss_latency::cpu1.inst 55861.835098                       # average overall mshr miss latency
system.l3.overall_avg_mshr_miss_latency::cpu1.data 56211.047032                       # average overall mshr miss latency
system.l3.overall_avg_mshr_miss_latency::cpu2.inst 50931.279456                       # average overall mshr miss latency
system.l3.overall_avg_mshr_miss_latency::cpu2.data 54724.239243                       # average overall mshr miss latency
system.l3.overall_avg_mshr_miss_latency::cpu3.inst 54876.992504                       # average overall mshr miss latency
system.l3.overall_avg_mshr_miss_latency::cpu3.data 54799.660776                       # average overall mshr miss latency
system.l3.overall_avg_mshr_miss_latency::total 55465.963913                       # average overall mshr miss latency
system.membus.snoop_filter.tot_requests        175468                       # Total number of requests made to the snoop filter.
system.membus.snoop_filter.hit_single_requests        21148                       # Number of requests hitting in the snoop filter with a single holder of the requested data.
system.membus.snoop_filter.hit_multi_requests            0                       # Number of requests hitting in the snoop filter with multiple (>1) holders of the requested data.
system.membus.snoop_filter.tot_snoops               0                       # Total number of snoops made to the snoop filter.
system.membus.snoop_filter.hit_single_snoops            0                       # Number of snoops hitting in the snoop filter with a single holder of the requested data.
system.membus.snoop_filter.hit_multi_snoops            0                       # Number of snoops hitting in the snoop filter with multiple (>1) holders of the requested data.
system.membus.pwrStateResidencyTicks::UNDEFINED   3895047387                       # Cumulative time (in ticks) in various power states
system.membus.trans_dist::ReadResp              45748                       # Transaction distribution
system.membus.trans_dist::WritebackDirty        20286                       # Transaction distribution
system.membus.trans_dist::CleanEvict              862                       # Transaction distribution
system.membus.trans_dist::ReadExReq            108572                       # Transaction distribution
system.membus.trans_dist::ReadExResp           108572                       # Transaction distribution
system.membus.trans_dist::ReadSharedReq         45748                       # Transaction distribution
system.membus.pkt_count_system.l3.mem_side::system.mem_ctrls.port       329788                       # Packet count per connected master and slave (bytes)
system.membus.pkt_count_system.l3.mem_side::total       329788                       # Packet count per connected master and slave (bytes)
system.membus.pkt_count::total                 329788                       # Packet count per connected master and slave (bytes)
system.membus.pkt_size_system.l3.mem_side::system.mem_ctrls.port     11174784                       # Cumulative packet size per connected master and slave (bytes)
system.membus.pkt_size_system.l3.mem_side::total     11174784                       # Cumulative packet size per connected master and slave (bytes)
system.membus.pkt_size::total                11174784                       # Cumulative packet size per connected master and slave (bytes)
system.membus.snoops                                0                       # Total snoops (count)
system.membus.snoopTraffic                          0                       # Total snoop traffic (bytes)
system.membus.snoop_fanout::samples            154320                       # Request fanout histogram
system.membus.snoop_fanout::mean                    0                       # Request fanout histogram
system.membus.snoop_fanout::stdev                   0                       # Request fanout histogram
system.membus.snoop_fanout::underflows              0      0.00%      0.00% # Request fanout histogram
system.membus.snoop_fanout::0                  154320    100.00%    100.00% # Request fanout histogram
system.membus.snoop_fanout::1                       0      0.00%    100.00% # Request fanout histogram
system.membus.snoop_fanout::overflows               0      0.00%    100.00% # Request fanout histogram
system.membus.snoop_fanout::min_value               0                       # Request fanout histogram
system.membus.snoop_fanout::max_value               0                       # Request fanout histogram
system.membus.snoop_fanout::total              154320                       # Request fanout histogram
system.membus.reqLayer8.occupancy           293369378                       # Layer occupancy (ticks)
system.membus.reqLayer8.utilization               7.5                       # Layer utilization (%)
system.membus.respLayer1.occupancy          827407202                       # Layer occupancy (ticks)
system.membus.respLayer1.utilization             21.2                       # Layer utilization (%)
system.tol3bus.snoop_filter.tot_requests       296752                       # Total number of requests made to the snoop filter.
system.tol3bus.snoop_filter.hit_single_requests       139140                       # Number of requests hitting in the snoop filter with a single holder of the requested data.
system.tol3bus.snoop_filter.hit_multi_requests            0                       # Number of requests hitting in the snoop filter with multiple (>1) holders of the requested data.
system.tol3bus.snoop_filter.tot_snoops           2103                       # Total number of snoops made to the snoop filter.
system.tol3bus.snoop_filter.hit_single_snoops         2103                       # Number of snoops hitting in the snoop filter with a single holder of the requested data.
system.tol3bus.snoop_filter.hit_multi_snoops            0                       # Number of snoops hitting in the snoop filter with multiple (>1) holders of the requested data.
system.tol3bus.pwrStateResidencyTicks::UNDEFINED   3895047387                       # Cumulative time (in ticks) in various power states
system.tol3bus.trans_dist::ReadResp             49051                       # Transaction distribution
system.tol3bus.trans_dist::WritebackDirty       155490                       # Transaction distribution
system.tol3bus.trans_dist::CleanEvict            6882                       # Transaction distribution
system.tol3bus.trans_dist::UpgradeReq               5                       # Transaction distribution
system.tol3bus.trans_dist::UpgradeResp              5                       # Transaction distribution
system.tol3bus.trans_dist::ReadExReq           108572                       # Transaction distribution
system.tol3bus.trans_dist::ReadExResp          108572                       # Transaction distribution
system.tol3bus.trans_dist::ReadSharedReq        49051                       # Transaction distribution
system.tol3bus.pkt_count_system.cpu0.l2cache.mem_side::system.l3.cpu_side       113116                       # Packet count per connected master and slave (bytes)
system.tol3bus.pkt_count_system.cpu1.l2cache.mem_side::system.l3.cpu_side       113153                       # Packet count per connected master and slave (bytes)
system.tol3bus.pkt_count_system.cpu2.l2cache.mem_side::system.l3.cpu_side       113999                       # Packet count per connected master and slave (bytes)
system.tol3bus.pkt_count_system.cpu3.l2cache.mem_side::system.l3.cpu_side       114112                       # Packet count per connected master and slave (bytes)
system.tol3bus.pkt_count::total                454380                       # Packet count per connected master and slave (bytes)
system.tol3bus.pkt_size_system.cpu0.l2cache.mem_side::system.l3.cpu_side      4664768                       # Cumulative packet size per connected master and slave (bytes)
system.tol3bus.pkt_size_system.cpu1.l2cache.mem_side::system.l3.cpu_side      4666368                       # Cumulative packet size per connected master and slave (bytes)
system.tol3bus.pkt_size_system.cpu2.l2cache.mem_side::system.l3.cpu_side      4702080                       # Cumulative packet size per connected master and slave (bytes)
system.tol3bus.pkt_size_system.cpu3.l2cache.mem_side::system.l3.cpu_side      4707712                       # Cumulative packet size per connected master and slave (bytes)
system.tol3bus.pkt_size::total               18740928                       # Cumulative packet size per connected master and slave (bytes)
system.tol3bus.snoops                           23248                       # Total snoops (count)
system.tol3bus.snoopTraffic                   1298304                       # Total snoop traffic (bytes)
system.tol3bus.snoop_fanout::samples           180876                       # Request fanout histogram
system.tol3bus.snoop_fanout::mean            0.011627                       # Request fanout histogram
system.tol3bus.snoop_fanout::stdev           0.107199                       # Request fanout histogram
system.tol3bus.snoop_fanout::underflows             0      0.00%      0.00% # Request fanout histogram
system.tol3bus.snoop_fanout::0                 178773     98.84%     98.84% # Request fanout histogram
system.tol3bus.snoop_fanout::1                   2103      1.16%    100.00% # Request fanout histogram
system.tol3bus.snoop_fanout::2                      0      0.00%    100.00% # Request fanout histogram
system.tol3bus.snoop_fanout::3                      0      0.00%    100.00% # Request fanout histogram
system.tol3bus.snoop_fanout::4                      0      0.00%    100.00% # Request fanout histogram
system.tol3bus.snoop_fanout::overflows              0      0.00%    100.00% # Request fanout histogram
system.tol3bus.snoop_fanout::min_value              0                       # Request fanout histogram
system.tol3bus.snoop_fanout::max_value              1                       # Request fanout histogram
system.tol3bus.snoop_fanout::total             180876                       # Request fanout histogram
system.tol3bus.reqLayer0.occupancy          632847793                       # Layer occupancy (ticks)
system.tol3bus.reqLayer0.utilization             16.2                       # Layer utilization (%)
system.tol3bus.respLayer0.occupancy         124689830                       # Layer occupancy (ticks)
system.tol3bus.respLayer0.utilization             3.2                       # Layer utilization (%)
system.tol3bus.respLayer1.occupancy         124758973                       # Layer occupancy (ticks)
system.tol3bus.respLayer1.utilization             3.2                       # Layer utilization (%)
system.tol3bus.respLayer2.occupancy         125620688                       # Layer occupancy (ticks)
system.tol3bus.respLayer2.utilization             3.2                       # Layer utilization (%)
system.tol3bus.respLayer3.occupancy         125731174                       # Layer occupancy (ticks)
system.tol3bus.respLayer3.utilization             3.2                       # Layer utilization (%)

---------- End Simulation Statistics   ----------
