
---------- Begin Simulation Statistics ----------
sim_seconds                                  0.000350                       # Number of seconds simulated
sim_ticks                                   349594722                       # Number of ticks simulated
final_tick                                  349594722                       # Number of ticks from beginning of simulation (restored from checkpoints and never reset)
sim_freq                                 1000000000000                       # Frequency of simulated ticks
host_inst_rate                                 170210                       # Simulator instruction rate (inst/s)
host_op_rate                                   265693                       # Simulator op (including micro ops) rate (op/s)
host_tick_rate                               14077551                       # Simulator tick rate (ticks/s)
host_mem_usage                               33896536                       # Number of bytes of host memory used
host_seconds                                    24.83                       # Real time elapsed on the host
sim_insts                                     4226895                       # Number of instructions simulated
sim_ops                                       6598091                       # Number of ops (including micro ops) simulated
system.voltage_domain.voltage                       1                       # Voltage in Volts
system.clk_domain.clock                          1000                       # Clock period in ticks
system.mem_ctrls.pwrStateResidencyTicks::UNDEFINED    349594722                       # Cumulative time (in ticks) in various power states
system.mem_ctrls.bytes_read::cpu0.inst          84672                       # Number of bytes read from this memory
system.mem_ctrls.bytes_read::cpu0.data         205760                       # Number of bytes read from this memory
system.mem_ctrls.bytes_read::cpu1.inst          84672                       # Number of bytes read from this memory
system.mem_ctrls.bytes_read::cpu1.data         205952                       # Number of bytes read from this memory
system.mem_ctrls.bytes_read::cpu2.inst          85696                       # Number of bytes read from this memory
system.mem_ctrls.bytes_read::cpu2.data         205248                       # Number of bytes read from this memory
system.mem_ctrls.bytes_read::cpu3.inst          85888                       # Number of bytes read from this memory
system.mem_ctrls.bytes_read::cpu3.data         204928                       # Number of bytes read from this memory
system.mem_ctrls.bytes_read::total            1162816                       # Number of bytes read from this memory
system.mem_ctrls.bytes_inst_read::cpu0.inst        84672                       # Number of instructions bytes read from this memory
system.mem_ctrls.bytes_inst_read::cpu1.inst        84672                       # Number of instructions bytes read from this memory
system.mem_ctrls.bytes_inst_read::cpu2.inst        85696                       # Number of instructions bytes read from this memory
system.mem_ctrls.bytes_inst_read::cpu3.inst        85888                       # Number of instructions bytes read from this memory
system.mem_ctrls.bytes_inst_read::total        340928                       # Number of instructions bytes read from this memory
system.mem_ctrls.num_reads::cpu0.inst            1323                       # Number of read requests responded to by this memory
system.mem_ctrls.num_reads::cpu0.data            3215                       # Number of read requests responded to by this memory
system.mem_ctrls.num_reads::cpu1.inst            1323                       # Number of read requests responded to by this memory
system.mem_ctrls.num_reads::cpu1.data            3218                       # Number of read requests responded to by this memory
system.mem_ctrls.num_reads::cpu2.inst            1339                       # Number of read requests responded to by this memory
system.mem_ctrls.num_reads::cpu2.data            3207                       # Number of read requests responded to by this memory
system.mem_ctrls.num_reads::cpu3.inst            1342                       # Number of read requests responded to by this memory
system.mem_ctrls.num_reads::cpu3.data            3202                       # Number of read requests responded to by this memory
system.mem_ctrls.num_reads::total               18169                       # Number of read requests responded to by this memory
system.mem_ctrls.bw_read::cpu0.inst         242200453                       # Total read bandwidth from this memory (bytes/s)
system.mem_ctrls.bw_read::cpu0.data         588567238                       # Total read bandwidth from this memory (bytes/s)
system.mem_ctrls.bw_read::cpu1.inst         242200453                       # Total read bandwidth from this memory (bytes/s)
system.mem_ctrls.bw_read::cpu1.data         589116446                       # Total read bandwidth from this memory (bytes/s)
system.mem_ctrls.bw_read::cpu2.inst         245129559                       # Total read bandwidth from this memory (bytes/s)
system.mem_ctrls.bw_read::cpu2.data         587102685                       # Total read bandwidth from this memory (bytes/s)
system.mem_ctrls.bw_read::cpu3.inst         245678766                       # Total read bandwidth from this memory (bytes/s)
system.mem_ctrls.bw_read::cpu3.data         586187340                       # Total read bandwidth from this memory (bytes/s)
system.mem_ctrls.bw_read::total            3326182939                       # Total read bandwidth from this memory (bytes/s)
system.mem_ctrls.bw_inst_read::cpu0.inst    242200453                       # Instruction read bandwidth from this memory (bytes/s)
system.mem_ctrls.bw_inst_read::cpu1.inst    242200453                       # Instruction read bandwidth from this memory (bytes/s)
system.mem_ctrls.bw_inst_read::cpu2.inst    245129559                       # Instruction read bandwidth from this memory (bytes/s)
system.mem_ctrls.bw_inst_read::cpu3.inst    245678766                       # Instruction read bandwidth from this memory (bytes/s)
system.mem_ctrls.bw_inst_read::total        975209231                       # Instruction read bandwidth from this memory (bytes/s)
system.mem_ctrls.bw_total::cpu0.inst        242200453                       # Total bandwidth to/from this memory (bytes/s)
system.mem_ctrls.bw_total::cpu0.data        588567238                       # Total bandwidth to/from this memory (bytes/s)
system.mem_ctrls.bw_total::cpu1.inst        242200453                       # Total bandwidth to/from this memory (bytes/s)
system.mem_ctrls.bw_total::cpu1.data        589116446                       # Total bandwidth to/from this memory (bytes/s)
system.mem_ctrls.bw_total::cpu2.inst        245129559                       # Total bandwidth to/from this memory (bytes/s)
system.mem_ctrls.bw_total::cpu2.data        587102685                       # Total bandwidth to/from this memory (bytes/s)
system.mem_ctrls.bw_total::cpu3.inst        245678766                       # Total bandwidth to/from this memory (bytes/s)
system.mem_ctrls.bw_total::cpu3.data        586187340                       # Total bandwidth to/from this memory (bytes/s)
system.mem_ctrls.bw_total::total           3326182939                       # Total bandwidth to/from this memory (bytes/s)
system.pwrStateResidencyTicks::UNDEFINED    349594722                       # Cumulative time (in ticks) in various power states
system.cpu0.branchPred.lookups                 168621                       # Number of BP lookups
system.cpu0.branchPred.condPredicted           168621                       # Number of conditional branches predicted
system.cpu0.branchPred.condIncorrect            11782                       # Number of conditional branches incorrect
system.cpu0.branchPred.BTBLookups              144279                       # Number of BTB lookups
system.cpu0.branchPred.BTBHits                      0                       # Number of BTB hits
system.cpu0.branchPred.BTBCorrect                   0                       # Number of correct BTB predictions (this stat may not work properly.
system.cpu0.branchPred.BTBHitPct             0.000000                       # BTB Hit Percentage
system.cpu0.branchPred.usedRAS                   4940                       # Number of times the RAS was used to get a target.
system.cpu0.branchPred.RASInCorrect              1005                       # Number of incorrect RAS predictions.
system.cpu0.branchPred.indirectLookups         144279                       # Number of indirect predictor lookups.
system.cpu0.branchPred.indirectHits             72497                       # Number of indirect target hits.
system.cpu0.branchPred.indirectMisses           71782                       # Number of indirect misses.
system.cpu0.branchPredindirectMispredicted         5796                       # Number of mispredicted indirect branches.
system.cpu_voltage_domain.voltage                   1                       # Voltage in Volts
system.cpu_clk_domain.clock                       333                       # Clock period in ticks
system.cpu0.dtb.walker.pwrStateResidencyTicks::UNDEFINED    349594722                       # Cumulative time (in ticks) in various power states
system.cpu0.dtb.rdAccesses                     496461                       # TLB accesses on read requests
system.cpu0.dtb.wrAccesses                      74991                       # TLB accesses on write requests
system.cpu0.dtb.rdMisses                          723                       # TLB misses on read requests
system.cpu0.dtb.wrMisses                           84                       # TLB misses on write requests
system.cpu0.apic_clk_domain.clock                5328                       # Clock period in ticks
system.cpu0.interrupts.pwrStateResidencyTicks::UNDEFINED    349594722                       # Cumulative time (in ticks) in various power states
system.cpu0.itb.walker.pwrStateResidencyTicks::UNDEFINED    349594722                       # Cumulative time (in ticks) in various power states
system.cpu0.itb.rdAccesses                          0                       # TLB accesses on read requests
system.cpu0.itb.wrAccesses                     158357                       # TLB accesses on write requests
system.cpu0.itb.rdMisses                            0                       # TLB misses on read requests
system.cpu0.itb.wrMisses                          189                       # TLB misses on write requests
system.cpu0.workload.numSyscalls                   96                       # Number of system calls
system.cpu0.pwrStateResidencyTicks::ON      349594722                       # Cumulative time (in ticks) in various power states
system.cpu0.numCycles                         1049835                       # number of cpu cycles simulated
system.cpu0.numWorkItemsStarted                     0                       # number of work items this cpu started
system.cpu0.numWorkItemsCompleted                   0                       # number of work items this cpu completed
system.cpu0.fetch.icacheStallCycles            206188                       # Number of cycles fetch is stalled on an Icache miss
system.cpu0.fetch.Insts                       1432819                       # Number of instructions fetch has processed
system.cpu0.fetch.Branches                     168621                       # Number of branches that fetch encountered
system.cpu0.fetch.predictedBranches             77437                       # Number of branches that fetch has predicted taken
system.cpu0.fetch.Cycles                       715725                       # Number of cycles fetch has run and was not squashing or blocked
system.cpu0.fetch.SquashCycles                  23744                       # Number of cycles fetch has spent squashing
system.cpu0.fetch.MiscStallCycles                   9                       # Number of cycles fetch has spent waiting on interrupts, or bad addresses, or out of MSHRs
system.cpu0.fetch.PendingQuiesceStallCycles            9                       # Number of stall cycles due to pending quiesce instructions
system.cpu0.fetch.IcacheWaitRetryStallCycles          114                       # Number of stall cycles due to full MSHR
system.cpu0.fetch.CacheLines                   158357                       # Number of cache lines fetched
system.cpu0.fetch.IcacheSquashes                 3711                       # Number of outstanding Icache misses that were squashed
system.cpu0.fetch.rateDist::samples            933917                       # Number of instructions fetched each cycle (Total)
system.cpu0.fetch.rateDist::mean             2.518419                       # Number of instructions fetched each cycle (Total)
system.cpu0.fetch.rateDist::stdev            3.444880                       # Number of instructions fetched each cycle (Total)
system.cpu0.fetch.rateDist::underflows              0      0.00%      0.00% # Number of instructions fetched each cycle (Total)
system.cpu0.fetch.rateDist::0                  576322     61.71%     61.71% # Number of instructions fetched each cycle (Total)
system.cpu0.fetch.rateDist::1                   12528      1.34%     63.05% # Number of instructions fetched each cycle (Total)
system.cpu0.fetch.rateDist::2                   14139      1.51%     64.57% # Number of instructions fetched each cycle (Total)
system.cpu0.fetch.rateDist::3                   19195      2.06%     66.62% # Number of instructions fetched each cycle (Total)
system.cpu0.fetch.rateDist::4                   16958      1.82%     68.44% # Number of instructions fetched each cycle (Total)
system.cpu0.fetch.rateDist::5                   22759      2.44%     70.87% # Number of instructions fetched each cycle (Total)
system.cpu0.fetch.rateDist::6                   38692      4.14%     75.02% # Number of instructions fetched each cycle (Total)
system.cpu0.fetch.rateDist::7                   26768      2.87%     77.88% # Number of instructions fetched each cycle (Total)
system.cpu0.fetch.rateDist::8                  206556     22.12%    100.00% # Number of instructions fetched each cycle (Total)
system.cpu0.fetch.rateDist::overflows               0      0.00%    100.00% # Number of instructions fetched each cycle (Total)
system.cpu0.fetch.rateDist::min_value               0                       # Number of instructions fetched each cycle (Total)
system.cpu0.fetch.rateDist::max_value               8                       # Number of instructions fetched each cycle (Total)
system.cpu0.fetch.rateDist::total              933917                       # Number of instructions fetched each cycle (Total)
system.cpu0.fetch.branchRate                 0.160617                       # Number of branch fetches per cycle
system.cpu0.fetch.rate                       1.364804                       # Number of inst fetches per cycle
system.cpu0.decode.IdleCycles                  131233                       # Number of cycles decode is idle
system.cpu0.decode.BlockedCycles               484543                       # Number of cycles decode is blocked
system.cpu0.decode.RunCycles                   256804                       # Number of cycles decode is running
system.cpu0.decode.UnblockCycles                49465                       # Number of cycles decode is unblocking
system.cpu0.decode.SquashCycles                 11872                       # Number of cycles decode is squashing
system.cpu0.decode.DecodedInsts               2237268                       # Number of instructions handled by decode
system.cpu0.rename.SquashCycles                 11872                       # Number of cycles rename is squashing
system.cpu0.rename.IdleCycles                  159116                       # Number of cycles rename is idle
system.cpu0.rename.BlockCycles                 232455                       # Number of cycles rename is blocking
system.cpu0.rename.serializeStallCycles          8986                       # count of cycles rename stalled for serializing inst
system.cpu0.rename.RunCycles                   276046                       # Number of cycles rename is running
system.cpu0.rename.UnblockCycles               245442                       # Number of cycles rename is unblocking
system.cpu0.rename.RenamedInsts               2181226                       # Number of instructions processed by rename
system.cpu0.rename.ROBFullEvents                 2399                       # Number of times rename has blocked due to ROB full
system.cpu0.rename.IQFullEvents                 17292                       # Number of times rename has blocked due to IQ full
system.cpu0.rename.LQFullEvents                169726                       # Number of times rename has blocked due to LQ full
system.cpu0.rename.SQFullEvents                 43960                       # Number of times rename has blocked due to SQ full
system.cpu0.rename.FullRegisterEvents               3                       # Number of times there has been no free registers
system.cpu0.rename.RenamedOperands            2903186                       # Number of destination operands rename has renamed
system.cpu0.rename.RenameLookups              5282176                       # Number of register rename lookups that rename has made
system.cpu0.rename.int_rename_lookups         3354807                       # Number of integer rename lookups
system.cpu0.rename.fp_rename_lookups           194308                       # Number of floating rename lookups
system.cpu0.rename.CommittedMaps              2241322                       # Number of HB maps that are committed
system.cpu0.rename.UndoneMaps                  661752                       # Number of HB maps that are undone due to squashing
system.cpu0.rename.serializingInsts               259                       # count of serializing insts renamed
system.cpu0.rename.tempSerializingInsts           242                       # count of temporary serializing insts renamed
system.cpu0.rename.skidInsts                   269248                       # count of insts added to the skid buffer
system.cpu0.memDep0.insertedLoads              517149                       # Number of loads inserted to the mem dependence unit.
system.cpu0.memDep0.insertedStores              82479                       # Number of stores inserted to the mem dependence unit.
system.cpu0.memDep0.conflictingLoads            55491                       # Number of conflicting loads.
system.cpu0.memDep0.conflictingStores           17942                       # Number of conflicting stores.
system.cpu0.iq.iqInstsAdded                   2083168                       # Number of instructions added to the IQ (excludes non-spec)
system.cpu0.iq.iqNonSpecInstsAdded                373                       # Number of non-speculative instructions added to the IQ
system.cpu0.iq.iqInstsIssued                  1941831                       # Number of instructions issued
system.cpu0.iq.iqSquashedInstsIssued             5927                       # Number of squashed instructions issued
system.cpu0.iq.iqSquashedInstsExamined         442020                       # Number of squashed instructions iterated over during squash; mainly for profiling
system.cpu0.iq.iqSquashedOperandsExamined       613847                       # Number of squashed operands that are examined and possibly removed from graph
system.cpu0.iq.iqSquashedNonSpecRemoved           187                       # Number of squashed non-spec instructions that were removed
system.cpu0.iq.issued_per_cycle::samples       933917                       # Number of insts issued each cycle
system.cpu0.iq.issued_per_cycle::mean        2.079233                       # Number of insts issued each cycle
system.cpu0.iq.issued_per_cycle::stdev       2.417824                       # Number of insts issued each cycle
system.cpu0.iq.issued_per_cycle::underflows            0      0.00%      0.00% # Number of insts issued each cycle
system.cpu0.iq.issued_per_cycle::0             448626     48.04%     48.04% # Number of insts issued each cycle
system.cpu0.iq.issued_per_cycle::1              55129      5.90%     53.94% # Number of insts issued each cycle
system.cpu0.iq.issued_per_cycle::2              66721      7.14%     61.08% # Number of insts issued each cycle
system.cpu0.iq.issued_per_cycle::3              72489      7.76%     68.85% # Number of insts issued each cycle
system.cpu0.iq.issued_per_cycle::4              97161     10.40%     79.25% # Number of insts issued each cycle
system.cpu0.iq.issued_per_cycle::5              81660      8.74%     87.99% # Number of insts issued each cycle
system.cpu0.iq.issued_per_cycle::6              61592      6.60%     94.59% # Number of insts issued each cycle
system.cpu0.iq.issued_per_cycle::7              35015      3.75%     98.34% # Number of insts issued each cycle
system.cpu0.iq.issued_per_cycle::8              15524      1.66%    100.00% # Number of insts issued each cycle
system.cpu0.iq.issued_per_cycle::overflows            0      0.00%    100.00% # Number of insts issued each cycle
system.cpu0.iq.issued_per_cycle::min_value            0                       # Number of insts issued each cycle
system.cpu0.iq.issued_per_cycle::max_value            8                       # Number of insts issued each cycle
system.cpu0.iq.issued_per_cycle::total         933917                       # Number of insts issued each cycle
system.cpu0.iq.fu_full::No_OpClass                  0      0.00%      0.00% # attempts to use FU when none available
system.cpu0.iq.fu_full::IntAlu                  14848     67.48%     67.48% # attempts to use FU when none available
system.cpu0.iq.fu_full::IntMult                     0      0.00%     67.48% # attempts to use FU when none available
system.cpu0.iq.fu_full::IntDiv                      0      0.00%     67.48% # attempts to use FU when none available
system.cpu0.iq.fu_full::FloatAdd                 1546      7.03%     74.51% # attempts to use FU when none available
system.cpu0.iq.fu_full::FloatCmp                    0      0.00%     74.51% # attempts to use FU when none available
system.cpu0.iq.fu_full::FloatCvt                    0      0.00%     74.51% # attempts to use FU when none available
system.cpu0.iq.fu_full::FloatMult                   0      0.00%     74.51% # attempts to use FU when none available
system.cpu0.iq.fu_full::FloatMultAcc                0      0.00%     74.51% # attempts to use FU when none available
system.cpu0.iq.fu_full::FloatDiv                    0      0.00%     74.51% # attempts to use FU when none available
system.cpu0.iq.fu_full::FloatMisc                   0      0.00%     74.51% # attempts to use FU when none available
system.cpu0.iq.fu_full::FloatSqrt                   0      0.00%     74.51% # attempts to use FU when none available
system.cpu0.iq.fu_full::SimdAdd                     0      0.00%     74.51% # attempts to use FU when none available
system.cpu0.iq.fu_full::SimdAddAcc                  0      0.00%     74.51% # attempts to use FU when none available
system.cpu0.iq.fu_full::SimdAlu                     0      0.00%     74.51% # attempts to use FU when none available
system.cpu0.iq.fu_full::SimdCmp                     0      0.00%     74.51% # attempts to use FU when none available
system.cpu0.iq.fu_full::SimdCvt                     0      0.00%     74.51% # attempts to use FU when none available
system.cpu0.iq.fu_full::SimdMisc                    0      0.00%     74.51% # attempts to use FU when none available
system.cpu0.iq.fu_full::SimdMult                    0      0.00%     74.51% # attempts to use FU when none available
system.cpu0.iq.fu_full::SimdMultAcc                 0      0.00%     74.51% # attempts to use FU when none available
system.cpu0.iq.fu_full::SimdShift                   0      0.00%     74.51% # attempts to use FU when none available
system.cpu0.iq.fu_full::SimdShiftAcc                0      0.00%     74.51% # attempts to use FU when none available
system.cpu0.iq.fu_full::SimdSqrt                    0      0.00%     74.51% # attempts to use FU when none available
system.cpu0.iq.fu_full::SimdFloatAdd                0      0.00%     74.51% # attempts to use FU when none available
system.cpu0.iq.fu_full::SimdFloatAlu                0      0.00%     74.51% # attempts to use FU when none available
system.cpu0.iq.fu_full::SimdFloatCmp                0      0.00%     74.51% # attempts to use FU when none available
system.cpu0.iq.fu_full::SimdFloatCvt                0      0.00%     74.51% # attempts to use FU when none available
system.cpu0.iq.fu_full::SimdFloatDiv                0      0.00%     74.51% # attempts to use FU when none available
system.cpu0.iq.fu_full::SimdFloatMisc               0      0.00%     74.51% # attempts to use FU when none available
system.cpu0.iq.fu_full::SimdFloatMult               0      0.00%     74.51% # attempts to use FU when none available
system.cpu0.iq.fu_full::SimdFloatMultAcc            0      0.00%     74.51% # attempts to use FU when none available
system.cpu0.iq.fu_full::SimdFloatSqrt               0      0.00%     74.51% # attempts to use FU when none available
system.cpu0.iq.fu_full::MemRead                  4613     20.97%     95.48% # attempts to use FU when none available
system.cpu0.iq.fu_full::MemWrite                  679      3.09%     98.56% # attempts to use FU when none available
system.cpu0.iq.fu_full::FloatMemRead              129      0.59%     99.15% # attempts to use FU when none available
system.cpu0.iq.fu_full::FloatMemWrite             187      0.85%    100.00% # attempts to use FU when none available
system.cpu0.iq.fu_full::IprAccess                   0      0.00%    100.00% # attempts to use FU when none available
system.cpu0.iq.fu_full::InstPrefetch                0      0.00%    100.00% # attempts to use FU when none available
system.cpu0.iq.FU_type_0::No_OpClass             8652      0.45%      0.45% # Type of FU issued
system.cpu0.iq.FU_type_0::IntAlu              1153836     59.42%     59.87% # Type of FU issued
system.cpu0.iq.FU_type_0::IntMult               36602      1.88%     61.75% # Type of FU issued
system.cpu0.iq.FU_type_0::IntDiv                 2225      0.11%     61.87% # Type of FU issued
system.cpu0.iq.FU_type_0::FloatAdd             160783      8.28%     70.15% # Type of FU issued
system.cpu0.iq.FU_type_0::FloatCmp                  0      0.00%     70.15% # Type of FU issued
system.cpu0.iq.FU_type_0::FloatCvt                 32      0.00%     70.15% # Type of FU issued
system.cpu0.iq.FU_type_0::FloatMult                 0      0.00%     70.15% # Type of FU issued
system.cpu0.iq.FU_type_0::FloatMultAcc              0      0.00%     70.15% # Type of FU issued
system.cpu0.iq.FU_type_0::FloatDiv                  0      0.00%     70.15% # Type of FU issued
system.cpu0.iq.FU_type_0::FloatMisc                 0      0.00%     70.15% # Type of FU issued
system.cpu0.iq.FU_type_0::FloatSqrt                 0      0.00%     70.15% # Type of FU issued
system.cpu0.iq.FU_type_0::SimdAdd                   0      0.00%     70.15% # Type of FU issued
system.cpu0.iq.FU_type_0::SimdAddAcc                0      0.00%     70.15% # Type of FU issued
system.cpu0.iq.FU_type_0::SimdAlu                   0      0.00%     70.15% # Type of FU issued
system.cpu0.iq.FU_type_0::SimdCmp                   0      0.00%     70.15% # Type of FU issued
system.cpu0.iq.FU_type_0::SimdCvt                   0      0.00%     70.15% # Type of FU issued
system.cpu0.iq.FU_type_0::SimdMisc                  0      0.00%     70.15% # Type of FU issued
system.cpu0.iq.FU_type_0::SimdMult                  0      0.00%     70.15% # Type of FU issued
system.cpu0.iq.FU_type_0::SimdMultAcc               0      0.00%     70.15% # Type of FU issued
system.cpu0.iq.FU_type_0::SimdShift                 0      0.00%     70.15% # Type of FU issued
system.cpu0.iq.FU_type_0::SimdShiftAcc              0      0.00%     70.15% # Type of FU issued
system.cpu0.iq.FU_type_0::SimdSqrt                  0      0.00%     70.15% # Type of FU issued
system.cpu0.iq.FU_type_0::SimdFloatAdd              0      0.00%     70.15% # Type of FU issued
system.cpu0.iq.FU_type_0::SimdFloatAlu              0      0.00%     70.15% # Type of FU issued
system.cpu0.iq.FU_type_0::SimdFloatCmp              0      0.00%     70.15% # Type of FU issued
system.cpu0.iq.FU_type_0::SimdFloatCvt              0      0.00%     70.15% # Type of FU issued
system.cpu0.iq.FU_type_0::SimdFloatDiv              0      0.00%     70.15% # Type of FU issued
system.cpu0.iq.FU_type_0::SimdFloatMisc             0      0.00%     70.15% # Type of FU issued
system.cpu0.iq.FU_type_0::SimdFloatMult             0      0.00%     70.15% # Type of FU issued
system.cpu0.iq.FU_type_0::SimdFloatMultAcc            0      0.00%     70.15% # Type of FU issued
system.cpu0.iq.FU_type_0::SimdFloatSqrt             0      0.00%     70.15% # Type of FU issued
system.cpu0.iq.FU_type_0::MemRead              442918     22.81%     92.96% # Type of FU issued
system.cpu0.iq.FU_type_0::MemWrite              56806      2.93%     95.88% # Type of FU issued
system.cpu0.iq.FU_type_0::FloatMemRead          60230      3.10%     98.98% # Type of FU issued
system.cpu0.iq.FU_type_0::FloatMemWrite         19747      1.02%    100.00% # Type of FU issued
system.cpu0.iq.FU_type_0::IprAccess                 0      0.00%    100.00% # Type of FU issued
system.cpu0.iq.FU_type_0::InstPrefetch              0      0.00%    100.00% # Type of FU issued
system.cpu0.iq.FU_type_0::total               1941831                       # Type of FU issued
system.cpu0.iq.rate                          1.849654                       # Inst issue rate
system.cpu0.iq.fu_busy_cnt                      22002                       # FU busy when requested
system.cpu0.iq.fu_busy_rate                  0.011331                       # FU busy rate (busy events/executed inst)
system.cpu0.iq.int_inst_queue_reads           4357238                       # Number of integer instruction queue reads
system.cpu0.iq.int_inst_queue_writes          2250288                       # Number of integer instruction queue writes
system.cpu0.iq.int_inst_queue_wakeup_accesses      1657486                       # Number of integer instruction queue wakeup accesses
system.cpu0.iq.fp_inst_queue_reads             488266                       # Number of floating instruction queue reads
system.cpu0.iq.fp_inst_queue_writes            275399                       # Number of floating instruction queue writes
system.cpu0.iq.fp_inst_queue_wakeup_accesses       239374                       # Number of floating instruction queue wakeup accesses
system.cpu0.iq.vec_inst_queue_reads                 0                       # Number of vector instruction queue reads
system.cpu0.iq.vec_inst_queue_writes                0                       # Number of vector instruction queue writes
system.cpu0.iq.vec_inst_queue_wakeup_accesses            0                       # Number of vector instruction queue wakeup accesses
system.cpu0.iq.int_alu_accesses               1710662                       # Number of integer alu accesses
system.cpu0.iq.fp_alu_accesses                 244519                       # Number of floating point alu accesses
system.cpu0.iq.vec_alu_accesses                     0                       # Number of vector alu accesses
system.cpu0.iew.lsq.thread0.forwLoads          100801                       # Number of loads that had data forwarded from stores
system.cpu0.iew.lsq.thread0.invAddrLoads            0                       # Number of loads ignored due to an invalid address
system.cpu0.iew.lsq.thread0.squashedLoads        66782                       # Number of loads squashed
system.cpu0.iew.lsq.thread0.ignoredResponses           74                       # Number of memory responses ignored because the instruction is squashed
system.cpu0.iew.lsq.thread0.memOrderViolation          136                       # Number of memory ordering violations
system.cpu0.iew.lsq.thread0.squashedStores        15641                       # Number of stores squashed
system.cpu0.iew.lsq.thread0.invAddrSwpfs            0                       # Number of software prefetches ignored due to an invalid address
system.cpu0.iew.lsq.thread0.blockedLoads            0                       # Number of blocked loads due to partial load-store forwarding
system.cpu0.iew.lsq.thread0.rescheduledLoads          107                       # Number of loads that were rescheduled
system.cpu0.iew.lsq.thread0.cacheBlocked          907                       # Number of times an access to memory failed due to the cache being blocked
system.cpu0.iew.iewIdleCycles                       0                       # Number of cycles IEW is idle
system.cpu0.iew.iewSquashCycles                 11872                       # Number of cycles IEW is squashing
system.cpu0.iew.iewBlockCycles                 146352                       # Number of cycles IEW is blocking
system.cpu0.iew.iewUnblockCycles                12308                       # Number of cycles IEW is unblocking
system.cpu0.iew.iewDispatchedInsts            2083541                       # Number of instructions dispatched to IQ
system.cpu0.iew.iewDispSquashedInsts              303                       # Number of squashed instructions skipped by dispatch
system.cpu0.iew.iewDispLoadInsts               517149                       # Number of dispatched load instructions
system.cpu0.iew.iewDispStoreInsts               82479                       # Number of dispatched store instructions
system.cpu0.iew.iewDispNonSpecInsts               273                       # Number of dispatched non-speculative instructions
system.cpu0.iew.iewIQFullEvents                   797                       # Number of times the IQ has become full, causing a stall
system.cpu0.iew.iewLSQFullEvents                11130                       # Number of times the LSQ has become full, causing a stall
system.cpu0.iew.memOrderViolationEvents           136                       # Number of memory order violations
system.cpu0.iew.predictedTakenIncorrect          4158                       # Number of branches that were predicted taken incorrectly
system.cpu0.iew.predictedNotTakenIncorrect        10554                       # Number of branches that were predicted not taken incorrectly
system.cpu0.iew.branchMispredicts               14712                       # Number of branch mispredicts detected at execute
system.cpu0.iew.iewExecutedInsts              1914656                       # Number of executed instructions
system.cpu0.iew.iewExecLoadInsts               496200                       # Number of load instructions executed
system.cpu0.iew.iewExecSquashedInsts            27171                       # Number of squashed instructions skipped in execute
system.cpu0.iew.exec_swp                            0                       # number of swp insts executed
system.cpu0.iew.exec_nop                            0                       # number of nop insts executed
system.cpu0.iew.exec_refs                      571098                       # number of memory reference insts executed
system.cpu0.iew.exec_branches                  107957                       # Number of branches executed
system.cpu0.iew.exec_stores                     74898                       # Number of stores executed
system.cpu0.iew.exec_rate                    1.823768                       # Inst execution rate
system.cpu0.iew.wb_sent                       1903068                       # cumulative count of insts sent to commit
system.cpu0.iew.wb_count                      1896860                       # cumulative count of insts written-back
system.cpu0.iew.wb_producers                  1500956                       # num instructions producing a value
system.cpu0.iew.wb_consumers                  2117566                       # num instructions consuming a value
system.cpu0.iew.wb_rate                      1.806817                       # insts written-back per cycle
system.cpu0.iew.wb_fanout                    0.708812                       # average fanout of values written-back
system.cpu0.commit.commitSquashedInsts         442058                       # The number of squashed insts skipped by commit
system.cpu0.commit.commitNonSpecStalls            186                       # The number of times commit has been forced to stall to communicate backwards
system.cpu0.commit.branchMispredicts            11782                       # The number of times a branch was mispredicted
system.cpu0.commit.committed_per_cycle::samples       868401                       # Number of insts commited each cycle
system.cpu0.commit.committed_per_cycle::mean     1.890199                       # Number of insts commited each cycle
system.cpu0.commit.committed_per_cycle::stdev     2.970594                       # Number of insts commited each cycle
system.cpu0.commit.committed_per_cycle::underflows            0      0.00%      0.00% # Number of insts commited each cycle
system.cpu0.commit.committed_per_cycle::0       519674     59.84%     59.84% # Number of insts commited each cycle
system.cpu0.commit.committed_per_cycle::1        81988      9.44%     69.28% # Number of insts commited each cycle
system.cpu0.commit.committed_per_cycle::2        32878      3.79%     73.07% # Number of insts commited each cycle
system.cpu0.commit.committed_per_cycle::3        40103      4.62%     77.69% # Number of insts commited each cycle
system.cpu0.commit.committed_per_cycle::4        29195      3.36%     81.05% # Number of insts commited each cycle
system.cpu0.commit.committed_per_cycle::5        12963      1.49%     82.54% # Number of insts commited each cycle
system.cpu0.commit.committed_per_cycle::6         6367      0.73%     83.28% # Number of insts commited each cycle
system.cpu0.commit.committed_per_cycle::7         8263      0.95%     84.23% # Number of insts commited each cycle
system.cpu0.commit.committed_per_cycle::8       136970     15.77%    100.00% # Number of insts commited each cycle
system.cpu0.commit.committed_per_cycle::overflows            0      0.00%    100.00% # Number of insts commited each cycle
system.cpu0.commit.committed_per_cycle::min_value            0                       # Number of insts commited each cycle
system.cpu0.commit.committed_per_cycle::max_value            8                       # Number of insts commited each cycle
system.cpu0.commit.committed_per_cycle::total       868401                       # Number of insts commited each cycle
system.cpu0.commit.committedInsts             1051059                       # Number of instructions committed
system.cpu0.commit.committedOps               1641451                       # Number of ops (including micro ops) committed
system.cpu0.commit.swp_count                        0                       # Number of s/w prefetches committed
system.cpu0.commit.refs                        517176                       # Number of memory references committed
system.cpu0.commit.loads                       450340                       # Number of loads committed
system.cpu0.commit.membars                         48                       # Number of memory barriers committed
system.cpu0.commit.branches                     88998                       # Number of branches committed
system.cpu0.commit.vec_insts                        0                       # Number of committed Vector instructions.
system.cpu0.commit.fp_insts                    230327                       # Number of committed floating point instructions.
system.cpu0.commit.int_insts                  1484963                       # Number of committed integer instructions.
system.cpu0.commit.function_calls                2691                       # Number of function calls committed.
system.cpu0.commit.op_class_0::No_OpClass         3451      0.21%      0.21% # Class of committed instruction
system.cpu0.commit.op_class_0::IntAlu          929267     56.61%     56.82% # Class of committed instruction
system.cpu0.commit.op_class_0::IntMult          36138      2.20%     59.02% # Class of committed instruction
system.cpu0.commit.op_class_0::IntDiv            1960      0.12%     59.14% # Class of committed instruction
system.cpu0.commit.op_class_0::FloatAdd        153427      9.35%     68.49% # Class of committed instruction
system.cpu0.commit.op_class_0::FloatCmp             0      0.00%     68.49% # Class of committed instruction
system.cpu0.commit.op_class_0::FloatCvt            32      0.00%     68.49% # Class of committed instruction
system.cpu0.commit.op_class_0::FloatMult            0      0.00%     68.49% # Class of committed instruction
system.cpu0.commit.op_class_0::FloatMultAcc            0      0.00%     68.49% # Class of committed instruction
system.cpu0.commit.op_class_0::FloatDiv             0      0.00%     68.49% # Class of committed instruction
system.cpu0.commit.op_class_0::FloatMisc            0      0.00%     68.49% # Class of committed instruction
system.cpu0.commit.op_class_0::FloatSqrt            0      0.00%     68.49% # Class of committed instruction
system.cpu0.commit.op_class_0::SimdAdd              0      0.00%     68.49% # Class of committed instruction
system.cpu0.commit.op_class_0::SimdAddAcc            0      0.00%     68.49% # Class of committed instruction
system.cpu0.commit.op_class_0::SimdAlu              0      0.00%     68.49% # Class of committed instruction
system.cpu0.commit.op_class_0::SimdCmp              0      0.00%     68.49% # Class of committed instruction
system.cpu0.commit.op_class_0::SimdCvt              0      0.00%     68.49% # Class of committed instruction
system.cpu0.commit.op_class_0::SimdMisc             0      0.00%     68.49% # Class of committed instruction
system.cpu0.commit.op_class_0::SimdMult             0      0.00%     68.49% # Class of committed instruction
system.cpu0.commit.op_class_0::SimdMultAcc            0      0.00%     68.49% # Class of committed instruction
system.cpu0.commit.op_class_0::SimdShift            0      0.00%     68.49% # Class of committed instruction
system.cpu0.commit.op_class_0::SimdShiftAcc            0      0.00%     68.49% # Class of committed instruction
system.cpu0.commit.op_class_0::SimdSqrt             0      0.00%     68.49% # Class of committed instruction
system.cpu0.commit.op_class_0::SimdFloatAdd            0      0.00%     68.49% # Class of committed instruction
system.cpu0.commit.op_class_0::SimdFloatAlu            0      0.00%     68.49% # Class of committed instruction
system.cpu0.commit.op_class_0::SimdFloatCmp            0      0.00%     68.49% # Class of committed instruction
system.cpu0.commit.op_class_0::SimdFloatCvt            0      0.00%     68.49% # Class of committed instruction
system.cpu0.commit.op_class_0::SimdFloatDiv            0      0.00%     68.49% # Class of committed instruction
system.cpu0.commit.op_class_0::SimdFloatMisc            0      0.00%     68.49% # Class of committed instruction
system.cpu0.commit.op_class_0::SimdFloatMult            0      0.00%     68.49% # Class of committed instruction
system.cpu0.commit.op_class_0::SimdFloatMultAcc            0      0.00%     68.49% # Class of committed instruction
system.cpu0.commit.op_class_0::SimdFloatSqrt            0      0.00%     68.49% # Class of committed instruction
system.cpu0.commit.op_class_0::MemRead         394163     24.01%     92.51% # Class of committed instruction
system.cpu0.commit.op_class_0::MemWrite         47761      2.91%     95.42% # Class of committed instruction
system.cpu0.commit.op_class_0::FloatMemRead        56177      3.42%     98.84% # Class of committed instruction
system.cpu0.commit.op_class_0::FloatMemWrite        19075      1.16%    100.00% # Class of committed instruction
system.cpu0.commit.op_class_0::IprAccess            0      0.00%    100.00% # Class of committed instruction
system.cpu0.commit.op_class_0::InstPrefetch            0      0.00%    100.00% # Class of committed instruction
system.cpu0.commit.op_class_0::total          1641451                       # Class of committed instruction
system.cpu0.commit.bw_lim_events               136970                       # number cycles where commit BW limit reached
system.cpu0.rob.rob_reads                     2814940                       # The number of ROB reads
system.cpu0.rob.rob_writes                    4233274                       # The number of ROB writes
system.cpu0.timesIdled                            773                       # Number of times that the entire CPU went into an idle state and unscheduled itself
system.cpu0.idleCycles                         115918                       # Total number of cycles that the CPU has spent unscheduled due to idling
system.cpu0.committedInsts                    1051059                       # Number of Instructions Simulated
system.cpu0.committedOps                      1641451                       # Number of Ops (including micro ops) Simulated
system.cpu0.cpi                              0.998835                       # CPI: Cycles Per Instruction
system.cpu0.cpi_total                        0.998835                       # CPI: Total CPI of All Threads
system.cpu0.ipc                              1.001166                       # IPC: Instructions Per Cycle
system.cpu0.ipc_total                        1.001166                       # IPC: Total IPC of All Threads
system.cpu0.int_regfile_reads                 2896658                       # number of integer regfile reads
system.cpu0.int_regfile_writes                1536899                       # number of integer regfile writes
system.cpu0.fp_regfile_reads                   167278                       # number of floating regfile reads
system.cpu0.fp_regfile_writes                  217871                       # number of floating regfile writes
system.cpu0.cc_regfile_reads                   591155                       # number of cc regfile reads
system.cpu0.cc_regfile_writes                  791246                       # number of cc regfile writes
system.cpu0.misc_regfile_reads                 809862                       # number of misc regfile reads
system.cpu0.misc_regfile_writes                    18                       # number of misc regfile writes
system.cpu0.dcache.tags.pwrStateResidencyTicks::UNDEFINED    349594722                       # Cumulative time (in ticks) in various power states
system.cpu0.dcache.tags.replacements             3401                       # number of replacements
system.cpu0.dcache.tags.tagsinuse          477.447265                       # Cycle average of tags in use
system.cpu0.dcache.tags.total_refs             444513                       # Total number of references to valid blocks.
system.cpu0.dcache.tags.sampled_refs             3913                       # Sample count of references to valid blocks.
system.cpu0.dcache.tags.avg_refs           113.599029                       # Average number of references to valid blocks.
system.cpu0.dcache.tags.warmup_cycle           175158                       # Cycle when the warmup percentage was hit.
system.cpu0.dcache.tags.occ_blocks::cpu0.data   477.447265                       # Average occupied blocks per requestor
system.cpu0.dcache.tags.occ_percent::cpu0.data     0.932514                       # Average percentage of cache occupancy
system.cpu0.dcache.tags.occ_percent::total     0.932514                       # Average percentage of cache occupancy
system.cpu0.dcache.tags.occ_task_id_blocks::1024          512                       # Occupied blocks per task id
system.cpu0.dcache.tags.age_task_id_blocks_1024::0           27                       # Occupied blocks per task id
system.cpu0.dcache.tags.age_task_id_blocks_1024::1          251                       # Occupied blocks per task id
system.cpu0.dcache.tags.age_task_id_blocks_1024::2          234                       # Occupied blocks per task id
system.cpu0.dcache.tags.occ_task_id_percent::1024            1                       # Percentage of cache occupancy per task id
system.cpu0.dcache.tags.tag_accesses          3691993                       # Number of tag accesses
system.cpu0.dcache.tags.data_accesses         3691993                       # Number of data accesses
system.cpu0.dcache.pwrStateResidencyTicks::UNDEFINED    349594722                       # Cumulative time (in ticks) in various power states
system.cpu0.dcache.ReadReq_hits::cpu0.data       378194                       # number of ReadReq hits
system.cpu0.dcache.ReadReq_hits::total         378194                       # number of ReadReq hits
system.cpu0.dcache.WriteReq_hits::cpu0.data        66312                       # number of WriteReq hits
system.cpu0.dcache.WriteReq_hits::total         66312                       # number of WriteReq hits
system.cpu0.dcache.demand_hits::cpu0.data       444506                       # number of demand (read+write) hits
system.cpu0.dcache.demand_hits::total          444506                       # number of demand (read+write) hits
system.cpu0.dcache.overall_hits::cpu0.data       444506                       # number of overall hits
system.cpu0.dcache.overall_hits::total         444506                       # number of overall hits
system.cpu0.dcache.ReadReq_misses::cpu0.data        15892                       # number of ReadReq misses
system.cpu0.dcache.ReadReq_misses::total        15892                       # number of ReadReq misses
system.cpu0.dcache.WriteReq_misses::cpu0.data          612                       # number of WriteReq misses
system.cpu0.dcache.WriteReq_misses::total          612                       # number of WriteReq misses
system.cpu0.dcache.demand_misses::cpu0.data        16504                       # number of demand (read+write) misses
system.cpu0.dcache.demand_misses::total         16504                       # number of demand (read+write) misses
system.cpu0.dcache.overall_misses::cpu0.data        16504                       # number of overall misses
system.cpu0.dcache.overall_misses::total        16504                       # number of overall misses
system.cpu0.dcache.ReadReq_miss_latency::cpu0.data    782502714                       # number of ReadReq miss cycles
system.cpu0.dcache.ReadReq_miss_latency::total    782502714                       # number of ReadReq miss cycles
system.cpu0.dcache.WriteReq_miss_latency::cpu0.data     37470825                       # number of WriteReq miss cycles
system.cpu0.dcache.WriteReq_miss_latency::total     37470825                       # number of WriteReq miss cycles
system.cpu0.dcache.demand_miss_latency::cpu0.data    819973539                       # number of demand (read+write) miss cycles
system.cpu0.dcache.demand_miss_latency::total    819973539                       # number of demand (read+write) miss cycles
system.cpu0.dcache.overall_miss_latency::cpu0.data    819973539                       # number of overall miss cycles
system.cpu0.dcache.overall_miss_latency::total    819973539                       # number of overall miss cycles
system.cpu0.dcache.ReadReq_accesses::cpu0.data       394086                       # number of ReadReq accesses(hits+misses)
system.cpu0.dcache.ReadReq_accesses::total       394086                       # number of ReadReq accesses(hits+misses)
system.cpu0.dcache.WriteReq_accesses::cpu0.data        66924                       # number of WriteReq accesses(hits+misses)
system.cpu0.dcache.WriteReq_accesses::total        66924                       # number of WriteReq accesses(hits+misses)
system.cpu0.dcache.demand_accesses::cpu0.data       461010                       # number of demand (read+write) accesses
system.cpu0.dcache.demand_accesses::total       461010                       # number of demand (read+write) accesses
system.cpu0.dcache.overall_accesses::cpu0.data       461010                       # number of overall (read+write) accesses
system.cpu0.dcache.overall_accesses::total       461010                       # number of overall (read+write) accesses
system.cpu0.dcache.ReadReq_miss_rate::cpu0.data     0.040326                       # miss rate for ReadReq accesses
system.cpu0.dcache.ReadReq_miss_rate::total     0.040326                       # miss rate for ReadReq accesses
system.cpu0.dcache.WriteReq_miss_rate::cpu0.data     0.009145                       # miss rate for WriteReq accesses
system.cpu0.dcache.WriteReq_miss_rate::total     0.009145                       # miss rate for WriteReq accesses
system.cpu0.dcache.demand_miss_rate::cpu0.data     0.035800                       # miss rate for demand accesses
system.cpu0.dcache.demand_miss_rate::total     0.035800                       # miss rate for demand accesses
system.cpu0.dcache.overall_miss_rate::cpu0.data     0.035800                       # miss rate for overall accesses
system.cpu0.dcache.overall_miss_rate::total     0.035800                       # miss rate for overall accesses
system.cpu0.dcache.ReadReq_avg_miss_latency::cpu0.data 49238.781399                       # average ReadReq miss latency
system.cpu0.dcache.ReadReq_avg_miss_latency::total 49238.781399                       # average ReadReq miss latency
system.cpu0.dcache.WriteReq_avg_miss_latency::cpu0.data 61226.838235                       # average WriteReq miss latency
system.cpu0.dcache.WriteReq_avg_miss_latency::total 61226.838235                       # average WriteReq miss latency
system.cpu0.dcache.demand_avg_miss_latency::cpu0.data 49683.321558                       # average overall miss latency
system.cpu0.dcache.demand_avg_miss_latency::total 49683.321558                       # average overall miss latency
system.cpu0.dcache.overall_avg_miss_latency::cpu0.data 49683.321558                       # average overall miss latency
system.cpu0.dcache.overall_avg_miss_latency::total 49683.321558                       # average overall miss latency
system.cpu0.dcache.blocked_cycles::no_mshrs        23501                       # number of cycles access was blocked
system.cpu0.dcache.blocked_cycles::no_targets          505                       # number of cycles access was blocked
system.cpu0.dcache.blocked::no_mshrs              377                       # number of cycles access was blocked
system.cpu0.dcache.blocked::no_targets              7                       # number of cycles access was blocked
system.cpu0.dcache.avg_blocked_cycles::no_mshrs    62.336870                       # average number of cycles each access was blocked
system.cpu0.dcache.avg_blocked_cycles::no_targets    72.142857                       # average number of cycles each access was blocked
system.cpu0.dcache.writebacks::writebacks          857                       # number of writebacks
system.cpu0.dcache.writebacks::total              857                       # number of writebacks
system.cpu0.dcache.ReadReq_mshr_hits::cpu0.data        12579                       # number of ReadReq MSHR hits
system.cpu0.dcache.ReadReq_mshr_hits::total        12579                       # number of ReadReq MSHR hits
system.cpu0.dcache.WriteReq_mshr_hits::cpu0.data            6                       # number of WriteReq MSHR hits
system.cpu0.dcache.WriteReq_mshr_hits::total            6                       # number of WriteReq MSHR hits
system.cpu0.dcache.demand_mshr_hits::cpu0.data        12585                       # number of demand (read+write) MSHR hits
system.cpu0.dcache.demand_mshr_hits::total        12585                       # number of demand (read+write) MSHR hits
system.cpu0.dcache.overall_mshr_hits::cpu0.data        12585                       # number of overall MSHR hits
system.cpu0.dcache.overall_mshr_hits::total        12585                       # number of overall MSHR hits
system.cpu0.dcache.ReadReq_mshr_misses::cpu0.data         3313                       # number of ReadReq MSHR misses
system.cpu0.dcache.ReadReq_mshr_misses::total         3313                       # number of ReadReq MSHR misses
system.cpu0.dcache.WriteReq_mshr_misses::cpu0.data          606                       # number of WriteReq MSHR misses
system.cpu0.dcache.WriteReq_mshr_misses::total          606                       # number of WriteReq MSHR misses
system.cpu0.dcache.demand_mshr_misses::cpu0.data         3919                       # number of demand (read+write) MSHR misses
system.cpu0.dcache.demand_mshr_misses::total         3919                       # number of demand (read+write) MSHR misses
system.cpu0.dcache.overall_mshr_misses::cpu0.data         3919                       # number of overall MSHR misses
system.cpu0.dcache.overall_mshr_misses::total         3919                       # number of overall MSHR misses
system.cpu0.dcache.ReadReq_mshr_miss_latency::cpu0.data    184335813                       # number of ReadReq MSHR miss cycles
system.cpu0.dcache.ReadReq_mshr_miss_latency::total    184335813                       # number of ReadReq MSHR miss cycles
system.cpu0.dcache.WriteReq_mshr_miss_latency::cpu0.data     36842454                       # number of WriteReq MSHR miss cycles
system.cpu0.dcache.WriteReq_mshr_miss_latency::total     36842454                       # number of WriteReq MSHR miss cycles
system.cpu0.dcache.demand_mshr_miss_latency::cpu0.data    221178267                       # number of demand (read+write) MSHR miss cycles
system.cpu0.dcache.demand_mshr_miss_latency::total    221178267                       # number of demand (read+write) MSHR miss cycles
system.cpu0.dcache.overall_mshr_miss_latency::cpu0.data    221178267                       # number of overall MSHR miss cycles
system.cpu0.dcache.overall_mshr_miss_latency::total    221178267                       # number of overall MSHR miss cycles
system.cpu0.dcache.ReadReq_mshr_miss_rate::cpu0.data     0.008407                       # mshr miss rate for ReadReq accesses
system.cpu0.dcache.ReadReq_mshr_miss_rate::total     0.008407                       # mshr miss rate for ReadReq accesses
system.cpu0.dcache.WriteReq_mshr_miss_rate::cpu0.data     0.009055                       # mshr miss rate for WriteReq accesses
system.cpu0.dcache.WriteReq_mshr_miss_rate::total     0.009055                       # mshr miss rate for WriteReq accesses
system.cpu0.dcache.demand_mshr_miss_rate::cpu0.data     0.008501                       # mshr miss rate for demand accesses
system.cpu0.dcache.demand_mshr_miss_rate::total     0.008501                       # mshr miss rate for demand accesses
system.cpu0.dcache.overall_mshr_miss_rate::cpu0.data     0.008501                       # mshr miss rate for overall accesses
system.cpu0.dcache.overall_mshr_miss_rate::total     0.008501                       # mshr miss rate for overall accesses
system.cpu0.dcache.ReadReq_avg_mshr_miss_latency::cpu0.data 55640.148808                       # average ReadReq mshr miss latency
system.cpu0.dcache.ReadReq_avg_mshr_miss_latency::total 55640.148808                       # average ReadReq mshr miss latency
system.cpu0.dcache.WriteReq_avg_mshr_miss_latency::cpu0.data 60796.128713                       # average WriteReq mshr miss latency
system.cpu0.dcache.WriteReq_avg_mshr_miss_latency::total 60796.128713                       # average WriteReq mshr miss latency
system.cpu0.dcache.demand_avg_mshr_miss_latency::cpu0.data 56437.424598                       # average overall mshr miss latency
system.cpu0.dcache.demand_avg_mshr_miss_latency::total 56437.424598                       # average overall mshr miss latency
system.cpu0.dcache.overall_avg_mshr_miss_latency::cpu0.data 56437.424598                       # average overall mshr miss latency
system.cpu0.dcache.overall_avg_mshr_miss_latency::total 56437.424598                       # average overall mshr miss latency
system.cpu0.dtb_walker_cache.tags.pwrStateResidencyTicks::UNDEFINED    349594722                       # Cumulative time (in ticks) in various power states
system.cpu0.dtb_walker_cache.tags.replacements            0                       # number of replacements
system.cpu0.dtb_walker_cache.tags.tagsinuse            0                       # Cycle average of tags in use
system.cpu0.dtb_walker_cache.tags.total_refs            0                       # Total number of references to valid blocks.
system.cpu0.dtb_walker_cache.tags.sampled_refs            0                       # Sample count of references to valid blocks.
system.cpu0.dtb_walker_cache.tags.avg_refs          nan                       # Average number of references to valid blocks.
system.cpu0.dtb_walker_cache.tags.warmup_cycle            0                       # Cycle when the warmup percentage was hit.
system.cpu0.dtb_walker_cache.tags.tag_accesses            0                       # Number of tag accesses
system.cpu0.dtb_walker_cache.tags.data_accesses            0                       # Number of data accesses
system.cpu0.dtb_walker_cache.pwrStateResidencyTicks::UNDEFINED    349594722                       # Cumulative time (in ticks) in various power states
system.cpu0.dtb_walker_cache.blocked_cycles::no_mshrs            0                       # number of cycles access was blocked
system.cpu0.dtb_walker_cache.blocked_cycles::no_targets            0                       # number of cycles access was blocked
system.cpu0.dtb_walker_cache.blocked::no_mshrs            0                       # number of cycles access was blocked
system.cpu0.dtb_walker_cache.blocked::no_targets            0                       # number of cycles access was blocked
system.cpu0.dtb_walker_cache.avg_blocked_cycles::no_mshrs          nan                       # average number of cycles each access was blocked
system.cpu0.dtb_walker_cache.avg_blocked_cycles::no_targets          nan                       # average number of cycles each access was blocked
system.cpu0.icache.tags.pwrStateResidencyTicks::UNDEFINED    349594722                       # Cumulative time (in ticks) in various power states
system.cpu0.icache.tags.replacements              853                       # number of replacements
system.cpu0.icache.tags.tagsinuse          486.249548                       # Cycle average of tags in use
system.cpu0.icache.tags.total_refs             156584                       # Total number of references to valid blocks.
system.cpu0.icache.tags.sampled_refs             1365                       # Sample count of references to valid blocks.
system.cpu0.icache.tags.avg_refs           114.713553                       # Average number of references to valid blocks.
system.cpu0.icache.tags.warmup_cycle            81252                       # Cycle when the warmup percentage was hit.
system.cpu0.icache.tags.occ_blocks::cpu0.inst   486.249548                       # Average occupied blocks per requestor
system.cpu0.icache.tags.occ_percent::cpu0.inst     0.949706                       # Average percentage of cache occupancy
system.cpu0.icache.tags.occ_percent::total     0.949706                       # Average percentage of cache occupancy
system.cpu0.icache.tags.occ_task_id_blocks::1024          512                       # Occupied blocks per task id
system.cpu0.icache.tags.age_task_id_blocks_1024::1            3                       # Occupied blocks per task id
system.cpu0.icache.tags.age_task_id_blocks_1024::2          509                       # Occupied blocks per task id
system.cpu0.icache.tags.occ_task_id_percent::1024            1                       # Percentage of cache occupancy per task id
system.cpu0.icache.tags.tag_accesses          1268223                       # Number of tag accesses
system.cpu0.icache.tags.data_accesses         1268223                       # Number of data accesses
system.cpu0.icache.pwrStateResidencyTicks::UNDEFINED    349594722                       # Cumulative time (in ticks) in various power states
system.cpu0.icache.ReadReq_hits::cpu0.inst       156584                       # number of ReadReq hits
system.cpu0.icache.ReadReq_hits::total         156584                       # number of ReadReq hits
system.cpu0.icache.demand_hits::cpu0.inst       156584                       # number of demand (read+write) hits
system.cpu0.icache.demand_hits::total          156584                       # number of demand (read+write) hits
system.cpu0.icache.overall_hits::cpu0.inst       156584                       # number of overall hits
system.cpu0.icache.overall_hits::total         156584                       # number of overall hits
system.cpu0.icache.ReadReq_misses::cpu0.inst         1773                       # number of ReadReq misses
system.cpu0.icache.ReadReq_misses::total         1773                       # number of ReadReq misses
system.cpu0.icache.demand_misses::cpu0.inst         1773                       # number of demand (read+write) misses
system.cpu0.icache.demand_misses::total          1773                       # number of demand (read+write) misses
system.cpu0.icache.overall_misses::cpu0.inst         1773                       # number of overall misses
system.cpu0.icache.overall_misses::total         1773                       # number of overall misses
system.cpu0.icache.ReadReq_miss_latency::cpu0.inst    107778446                       # number of ReadReq miss cycles
system.cpu0.icache.ReadReq_miss_latency::total    107778446                       # number of ReadReq miss cycles
system.cpu0.icache.demand_miss_latency::cpu0.inst    107778446                       # number of demand (read+write) miss cycles
system.cpu0.icache.demand_miss_latency::total    107778446                       # number of demand (read+write) miss cycles
system.cpu0.icache.overall_miss_latency::cpu0.inst    107778446                       # number of overall miss cycles
system.cpu0.icache.overall_miss_latency::total    107778446                       # number of overall miss cycles
system.cpu0.icache.ReadReq_accesses::cpu0.inst       158357                       # number of ReadReq accesses(hits+misses)
system.cpu0.icache.ReadReq_accesses::total       158357                       # number of ReadReq accesses(hits+misses)
system.cpu0.icache.demand_accesses::cpu0.inst       158357                       # number of demand (read+write) accesses
system.cpu0.icache.demand_accesses::total       158357                       # number of demand (read+write) accesses
system.cpu0.icache.overall_accesses::cpu0.inst       158357                       # number of overall (read+write) accesses
system.cpu0.icache.overall_accesses::total       158357                       # number of overall (read+write) accesses
system.cpu0.icache.ReadReq_miss_rate::cpu0.inst     0.011196                       # miss rate for ReadReq accesses
system.cpu0.icache.ReadReq_miss_rate::total     0.011196                       # miss rate for ReadReq accesses
system.cpu0.icache.demand_miss_rate::cpu0.inst     0.011196                       # miss rate for demand accesses
system.cpu0.icache.demand_miss_rate::total     0.011196                       # miss rate for demand accesses
system.cpu0.icache.overall_miss_rate::cpu0.inst     0.011196                       # miss rate for overall accesses
system.cpu0.icache.overall_miss_rate::total     0.011196                       # miss rate for overall accesses
system.cpu0.icache.ReadReq_avg_miss_latency::cpu0.inst 60788.745629                       # average ReadReq miss latency
system.cpu0.icache.ReadReq_avg_miss_latency::total 60788.745629                       # average ReadReq miss latency
system.cpu0.icache.demand_avg_miss_latency::cpu0.inst 60788.745629                       # average overall miss latency
system.cpu0.icache.demand_avg_miss_latency::total 60788.745629                       # average overall miss latency
system.cpu0.icache.overall_avg_miss_latency::cpu0.inst 60788.745629                       # average overall miss latency
system.cpu0.icache.overall_avg_miss_latency::total 60788.745629                       # average overall miss latency
system.cpu0.icache.blocked_cycles::no_mshrs         1969                       # number of cycles access was blocked
system.cpu0.icache.blocked_cycles::no_targets            0                       # number of cycles access was blocked
system.cpu0.icache.blocked::no_mshrs               15                       # number of cycles access was blocked
system.cpu0.icache.blocked::no_targets              0                       # number of cycles access was blocked
system.cpu0.icache.avg_blocked_cycles::no_mshrs   131.266667                       # average number of cycles each access was blocked
system.cpu0.icache.avg_blocked_cycles::no_targets          nan                       # average number of cycles each access was blocked
system.cpu0.icache.writebacks::writebacks          853                       # number of writebacks
system.cpu0.icache.writebacks::total              853                       # number of writebacks
system.cpu0.icache.ReadReq_mshr_hits::cpu0.inst          406                       # number of ReadReq MSHR hits
system.cpu0.icache.ReadReq_mshr_hits::total          406                       # number of ReadReq MSHR hits
system.cpu0.icache.demand_mshr_hits::cpu0.inst          406                       # number of demand (read+write) MSHR hits
system.cpu0.icache.demand_mshr_hits::total          406                       # number of demand (read+write) MSHR hits
system.cpu0.icache.overall_mshr_hits::cpu0.inst          406                       # number of overall MSHR hits
system.cpu0.icache.overall_mshr_hits::total          406                       # number of overall MSHR hits
system.cpu0.icache.ReadReq_mshr_misses::cpu0.inst         1367                       # number of ReadReq MSHR misses
system.cpu0.icache.ReadReq_mshr_misses::total         1367                       # number of ReadReq MSHR misses
system.cpu0.icache.demand_mshr_misses::cpu0.inst         1367                       # number of demand (read+write) MSHR misses
system.cpu0.icache.demand_mshr_misses::total         1367                       # number of demand (read+write) MSHR misses
system.cpu0.icache.overall_mshr_misses::cpu0.inst         1367                       # number of overall MSHR misses
system.cpu0.icache.overall_mshr_misses::total         1367                       # number of overall MSHR misses
system.cpu0.icache.ReadReq_mshr_miss_latency::cpu0.inst     88424820                       # number of ReadReq MSHR miss cycles
system.cpu0.icache.ReadReq_mshr_miss_latency::total     88424820                       # number of ReadReq MSHR miss cycles
system.cpu0.icache.demand_mshr_miss_latency::cpu0.inst     88424820                       # number of demand (read+write) MSHR miss cycles
system.cpu0.icache.demand_mshr_miss_latency::total     88424820                       # number of demand (read+write) MSHR miss cycles
system.cpu0.icache.overall_mshr_miss_latency::cpu0.inst     88424820                       # number of overall MSHR miss cycles
system.cpu0.icache.overall_mshr_miss_latency::total     88424820                       # number of overall MSHR miss cycles
system.cpu0.icache.ReadReq_mshr_miss_rate::cpu0.inst     0.008632                       # mshr miss rate for ReadReq accesses
system.cpu0.icache.ReadReq_mshr_miss_rate::total     0.008632                       # mshr miss rate for ReadReq accesses
system.cpu0.icache.demand_mshr_miss_rate::cpu0.inst     0.008632                       # mshr miss rate for demand accesses
system.cpu0.icache.demand_mshr_miss_rate::total     0.008632                       # mshr miss rate for demand accesses
system.cpu0.icache.overall_mshr_miss_rate::cpu0.inst     0.008632                       # mshr miss rate for overall accesses
system.cpu0.icache.overall_mshr_miss_rate::total     0.008632                       # mshr miss rate for overall accesses
system.cpu0.icache.ReadReq_avg_mshr_miss_latency::cpu0.inst 64685.310900                       # average ReadReq mshr miss latency
system.cpu0.icache.ReadReq_avg_mshr_miss_latency::total 64685.310900                       # average ReadReq mshr miss latency
system.cpu0.icache.demand_avg_mshr_miss_latency::cpu0.inst 64685.310900                       # average overall mshr miss latency
system.cpu0.icache.demand_avg_mshr_miss_latency::total 64685.310900                       # average overall mshr miss latency
system.cpu0.icache.overall_avg_mshr_miss_latency::cpu0.inst 64685.310900                       # average overall mshr miss latency
system.cpu0.icache.overall_avg_mshr_miss_latency::total 64685.310900                       # average overall mshr miss latency
system.cpu0.itb_walker_cache.tags.pwrStateResidencyTicks::UNDEFINED    349594722                       # Cumulative time (in ticks) in various power states
system.cpu0.itb_walker_cache.tags.replacements            0                       # number of replacements
system.cpu0.itb_walker_cache.tags.tagsinuse            0                       # Cycle average of tags in use
system.cpu0.itb_walker_cache.tags.total_refs            0                       # Total number of references to valid blocks.
system.cpu0.itb_walker_cache.tags.sampled_refs            0                       # Sample count of references to valid blocks.
system.cpu0.itb_walker_cache.tags.avg_refs          nan                       # Average number of references to valid blocks.
system.cpu0.itb_walker_cache.tags.warmup_cycle            0                       # Cycle when the warmup percentage was hit.
system.cpu0.itb_walker_cache.tags.tag_accesses            0                       # Number of tag accesses
system.cpu0.itb_walker_cache.tags.data_accesses            0                       # Number of data accesses
system.cpu0.itb_walker_cache.pwrStateResidencyTicks::UNDEFINED    349594722                       # Cumulative time (in ticks) in various power states
system.cpu0.itb_walker_cache.blocked_cycles::no_mshrs            0                       # number of cycles access was blocked
system.cpu0.itb_walker_cache.blocked_cycles::no_targets            0                       # number of cycles access was blocked
system.cpu0.itb_walker_cache.blocked::no_mshrs            0                       # number of cycles access was blocked
system.cpu0.itb_walker_cache.blocked::no_targets            0                       # number of cycles access was blocked
system.cpu0.itb_walker_cache.avg_blocked_cycles::no_mshrs          nan                       # average number of cycles each access was blocked
system.cpu0.itb_walker_cache.avg_blocked_cycles::no_targets          nan                       # average number of cycles each access was blocked
system.cpu0.l2cache.tags.pwrStateResidencyTicks::UNDEFINED    349594722                       # Cumulative time (in ticks) in various power states
system.cpu0.l2cache.tags.replacements            1154                       # number of replacements
system.cpu0.l2cache.tags.tagsinuse        2707.890979                       # Cycle average of tags in use
system.cpu0.l2cache.tags.total_refs              4758                       # Total number of references to valid blocks.
system.cpu0.l2cache.tags.sampled_refs            4736                       # Sample count of references to valid blocks.
system.cpu0.l2cache.tags.avg_refs            1.004645                       # Average number of references to valid blocks.
system.cpu0.l2cache.tags.warmup_cycle           78000                       # Cycle when the warmup percentage was hit.
system.cpu0.l2cache.tags.occ_blocks::writebacks    60.106719                       # Average occupied blocks per requestor
system.cpu0.l2cache.tags.occ_blocks::cpu0.inst   794.975696                       # Average occupied blocks per requestor
system.cpu0.l2cache.tags.occ_blocks::cpu0.data  1852.808564                       # Average occupied blocks per requestor
system.cpu0.l2cache.tags.occ_percent::writebacks     0.014674                       # Average percentage of cache occupancy
system.cpu0.l2cache.tags.occ_percent::cpu0.inst     0.194086                       # Average percentage of cache occupancy
system.cpu0.l2cache.tags.occ_percent::cpu0.data     0.452346                       # Average percentage of cache occupancy
system.cpu0.l2cache.tags.occ_percent::total     0.661106                       # Average percentage of cache occupancy
system.cpu0.l2cache.tags.occ_task_id_blocks::1024         3582                       # Occupied blocks per task id
system.cpu0.l2cache.tags.age_task_id_blocks_1024::0           28                       # Occupied blocks per task id
system.cpu0.l2cache.tags.age_task_id_blocks_1024::1          273                       # Occupied blocks per task id
system.cpu0.l2cache.tags.age_task_id_blocks_1024::2         3281                       # Occupied blocks per task id
system.cpu0.l2cache.tags.occ_task_id_percent::1024     0.874512                       # Percentage of cache occupancy per task id
system.cpu0.l2cache.tags.tag_accesses           42808                       # Number of tag accesses
system.cpu0.l2cache.tags.data_accesses          42808                       # Number of data accesses
system.cpu0.l2cache.pwrStateResidencyTicks::UNDEFINED    349594722                       # Cumulative time (in ticks) in various power states
system.cpu0.l2cache.WritebackDirty_hits::writebacks          857                       # number of WritebackDirty hits
system.cpu0.l2cache.WritebackDirty_hits::total          857                       # number of WritebackDirty hits
system.cpu0.l2cache.WritebackClean_hits::writebacks          850                       # number of WritebackClean hits
system.cpu0.l2cache.WritebackClean_hits::total          850                       # number of WritebackClean hits
system.cpu0.l2cache.UpgradeReq_hits::cpu0.data            7                       # number of UpgradeReq hits
system.cpu0.l2cache.UpgradeReq_hits::total            7                       # number of UpgradeReq hits
system.cpu0.l2cache.ReadExReq_hits::cpu0.data           60                       # number of ReadExReq hits
system.cpu0.l2cache.ReadExReq_hits::total           60                       # number of ReadExReq hits
system.cpu0.l2cache.ReadCleanReq_hits::cpu0.inst           38                       # number of ReadCleanReq hits
system.cpu0.l2cache.ReadCleanReq_hits::total           38                       # number of ReadCleanReq hits
system.cpu0.l2cache.ReadSharedReq_hits::cpu0.data          600                       # number of ReadSharedReq hits
system.cpu0.l2cache.ReadSharedReq_hits::total          600                       # number of ReadSharedReq hits
system.cpu0.l2cache.demand_hits::cpu0.inst           38                       # number of demand (read+write) hits
system.cpu0.l2cache.demand_hits::cpu0.data          660                       # number of demand (read+write) hits
system.cpu0.l2cache.demand_hits::total            698                       # number of demand (read+write) hits
system.cpu0.l2cache.overall_hits::cpu0.inst           38                       # number of overall hits
system.cpu0.l2cache.overall_hits::cpu0.data          660                       # number of overall hits
system.cpu0.l2cache.overall_hits::total           698                       # number of overall hits
system.cpu0.l2cache.ReadExReq_misses::cpu0.data          540                       # number of ReadExReq misses
system.cpu0.l2cache.ReadExReq_misses::total          540                       # number of ReadExReq misses
system.cpu0.l2cache.ReadCleanReq_misses::cpu0.inst         1326                       # number of ReadCleanReq misses
system.cpu0.l2cache.ReadCleanReq_misses::total         1326                       # number of ReadCleanReq misses
[...]
system.l3.demand_mshr_miss_latency::cpu0.data    169665652                       # number of demand (read+write) MSHR miss cycles
system.l3.demand_mshr_miss_latency::cpu1.inst     67510669                       # number of demand (read+write) MSHR miss cycles
system.l3.demand_mshr_miss_latency::cpu1.data    164787615                       # number of demand (read+write) MSHR miss cycles
system.l3.demand_mshr_miss_latency::cpu2.inst     71925796                       # number of demand (read+write) MSHR miss cycles
system.l3.demand_mshr_miss_latency::cpu2.data    161303793                       # number of demand (read+write) MSHR miss cycles
system.l3.demand_mshr_miss_latency::cpu3.inst     67160396                       # number of demand (read+write) MSHR miss cycles
system.l3.demand_mshr_miss_latency::cpu3.data    167240165                       # number of demand (read+write) MSHR miss cycles
system.l3.demand_mshr_miss_latency::total    938003210                       # number of demand (read+write) MSHR miss cycles
system.l3.overall_mshr_miss_latency::cpu0.inst     68409124                       # number of overall MSHR miss cycles
system.l3.overall_mshr_miss_latency::cpu0.data    169665652                       # number of overall MSHR miss cycles
system.l3.overall_mshr_miss_latency::cpu1.inst     67510669                       # number of overall MSHR miss cycles
system.l3.overall_mshr_miss_latency::cpu1.data    164787615                       # number of overall MSHR miss cycles
system.l3.overall_mshr_miss_latency::cpu2.inst     71925796                       # number of overall MSHR miss cycles
system.l3.overall_mshr_miss_latency::cpu2.data    161303793                       # number of overall MSHR miss cycles
system.l3.overall_mshr_miss_latency::cpu3.inst     67160396                       # number of overall MSHR miss cycles
system.l3.overall_mshr_miss_latency::cpu3.data    167240165                       # number of overall MSHR miss cycles
system.l3.overall_mshr_miss_latency::total    938003210                       # number of overall MSHR miss cycles
system.l3.ReadExReq_mshr_miss_rate::cpu0.data     0.985185                       # mshr miss rate for ReadExReq accesses
system.l3.ReadExReq_mshr_miss_rate::cpu1.data     0.979779                       # mshr miss rate for ReadExReq accesses
system.l3.ReadExReq_mshr_miss_rate::cpu2.data     0.974545                       # mshr miss rate for ReadExReq accesses
system.l3.ReadExReq_mshr_miss_rate::cpu3.data     0.965455                       # mshr miss rate for ReadExReq accesses
system.l3.ReadExReq_mshr_miss_rate::total     0.976190                       # mshr miss rate for ReadExReq accesses
system.l3.ReadSharedReq_mshr_miss_rate::cpu0.inst     0.997738                       # mshr miss rate for ReadSharedReq accesses
system.l3.ReadSharedReq_mshr_miss_rate::cpu0.data     0.988942                       # mshr miss rate for ReadSharedReq accesses
system.l3.ReadSharedReq_mshr_miss_rate::cpu1.inst     0.998491                       # mshr miss rate for ReadSharedReq accesses
system.l3.ReadSharedReq_mshr_miss_rate::cpu1.data     0.987859                       # mshr miss rate for ReadSharedReq accesses
system.l3.ReadSharedReq_mshr_miss_rate::cpu2.inst            1                       # mshr miss rate for ReadSharedReq accesses
system.l3.ReadSharedReq_mshr_miss_rate::cpu2.data     0.991831                       # mshr miss rate for ReadSharedReq accesses
system.l3.ReadSharedReq_mshr_miss_rate::cpu3.inst     0.997028                       # mshr miss rate for ReadSharedReq accesses
system.l3.ReadSharedReq_mshr_miss_rate::cpu3.data     0.986337                       # mshr miss rate for ReadSharedReq accesses
system.l3.ReadSharedReq_mshr_miss_rate::total     0.991898                       # mshr miss rate for ReadSharedReq accesses
system.l3.demand_mshr_miss_rate::cpu0.inst     0.997738                       # mshr miss rate for demand accesses
system.l3.demand_mshr_miss_rate::cpu0.data     0.988318                       # mshr miss rate for demand accesses
system.l3.demand_mshr_miss_rate::cpu1.inst     0.998491                       # mshr miss rate for demand accesses
system.l3.demand_mshr_miss_rate::cpu1.data     0.986511                       # mshr miss rate for demand accesses
system.l3.demand_mshr_miss_rate::cpu2.inst            1                       # mshr miss rate for demand accesses
system.l3.demand_mshr_miss_rate::cpu2.data     0.988899                       # mshr miss rate for demand accesses
system.l3.demand_mshr_miss_rate::cpu3.inst     0.997028                       # mshr miss rate for demand accesses
system.l3.demand_mshr_miss_rate::cpu3.data     0.982812                       # mshr miss rate for demand accesses
system.l3.demand_mshr_miss_rate::total       0.990028                       # mshr miss rate for demand accesses
system.l3.overall_mshr_miss_rate::cpu0.inst     0.997738                       # mshr miss rate for overall accesses
system.l3.overall_mshr_miss_rate::cpu0.data     0.988318                       # mshr miss rate for overall accesses
system.l3.overall_mshr_miss_rate::cpu1.inst     0.998491                       # mshr miss rate for overall accesses
system.l3.overall_mshr_miss_rate::cpu1.data     0.986511                       # mshr miss rate for overall accesses
system.l3.overall_mshr_miss_rate::cpu2.inst            1                       # mshr miss rate for overall accesses
system.l3.overall_mshr_miss_rate::cpu2.data     0.988899                       # mshr miss rate for overall accesses
system.l3.overall_mshr_miss_rate::cpu3.inst     0.997028                       # mshr miss rate for overall accesses
system.l3.overall_mshr_miss_rate::cpu3.data     0.982812                       # mshr miss rate for overall accesses
system.l3.overall_mshr_miss_rate::total      0.990028                       # mshr miss rate for overall accesses
system.l3.ReadExReq_avg_mshr_miss_latency::cpu0.data 53426.676692                       # average ReadExReq mshr miss latency
system.l3.ReadExReq_avg_mshr_miss_latency::cpu1.data 52024.808630                       # average ReadExReq mshr miss latency
system.l3.ReadExReq_avg_mshr_miss_latency::cpu2.data 48957.524254                       # average ReadExReq mshr miss latency
system.l3.ReadExReq_avg_mshr_miss_latency::cpu3.data 48381.342750                       # average ReadExReq mshr miss latency
system.l3.ReadExReq_avg_mshr_miss_latency::total 50696.032364                       # average ReadExReq mshr miss latency
system.l3.ReadSharedReq_avg_mshr_miss_latency::cpu0.inst 51707.576720                       # average ReadSharedReq mshr miss latency
system.l3.ReadSharedReq_avg_mshr_miss_latency::cpu0.data 52643.555721                       # average ReadSharedReq mshr miss latency
system.l3.ReadSharedReq_avg_mshr_miss_latency::cpu1.inst 51028.472411                       # average ReadSharedReq mshr miss latency
system.l3.ReadSharedReq_avg_mshr_miss_latency::cpu1.data 51045.956052                       # average ReadSharedReq mshr miss latency
system.l3.ReadSharedReq_avg_mshr_miss_latency::cpu2.inst 53716.053771                       # average ReadSharedReq mshr miss latency
system.l3.ReadSharedReq_avg_mshr_miss_latency::cpu2.data 50566.289779                       # average ReadSharedReq mshr miss latency
system.l3.ReadSharedReq_avg_mshr_miss_latency::cpu3.inst 50045.004471                       # average ReadSharedReq mshr miss latency
system.l3.ReadSharedReq_avg_mshr_miss_latency::cpu3.data 52995.010109                       # average ReadSharedReq mshr miss latency
system.l3.ReadSharedReq_avg_mshr_miss_latency::total 51750.281786                       # average ReadSharedReq mshr miss latency
system.l3.demand_avg_mshr_miss_latency::cpu0.inst 51707.576720                       # average overall mshr miss latency
system.l3.demand_avg_mshr_miss_latency::cpu0.data 52773.142146                       # average overall mshr miss latency
system.l3.demand_avg_mshr_miss_latency::cpu1.inst 51028.472411                       # average overall mshr miss latency
system.l3.demand_avg_mshr_miss_latency::cpu1.data 51208.084214                       # average overall mshr miss latency
system.l3.demand_avg_mshr_miss_latency::cpu2.inst 53716.053771                       # average overall mshr miss latency
system.l3.demand_avg_mshr_miss_latency::cpu2.data 50297.409729                       # average overall mshr miss latency
system.l3.demand_avg_mshr_miss_latency::cpu3.inst 50045.004471                       # average overall mshr miss latency
system.l3.demand_avg_mshr_miss_latency::cpu3.data 52229.907870                       # average overall mshr miss latency
system.l3.demand_avg_mshr_miss_latency::total 51626.573284                       # average overall mshr miss latency
system.l3.overall_avg_mshr_miss_latency::cpu0.inst 51707.576720                       # average overall mshr miss latency
system.l3.overall_avg_mshr_miss_latency::cpu0.data 52773.142146                       # average overall mshr miss latency
system.l3.overall_avg_mshr_miss_latency::cpu1.inst 51028.472411                       # average overall mshr miss latency
system.l3.overall_avg_mshr_miss_latency::cpu1.data 51208.084214                       # average overall mshr miss latency
system.l3.overall_avg_mshr_miss_latency::cpu2.inst 53716.053771                       # average overall mshr miss latency
system.l3.overall_avg_mshr_miss_latency::cpu2.data 50297.409729                       # average overall mshr miss latency
system.l3.overall_avg_mshr_miss_latency::cpu3.inst 50045.004471                       # average overall mshr miss latency
system.l3.overall_avg_mshr_miss_latency::cpu3.data 52229.907870                       # average overall mshr miss latency
system.l3.overall_avg_mshr_miss_latency::total 51626.573284                       # average overall mshr miss latency
system.membus.snoop_filter.tot_requests         18169                       # Total number of requests made to the snoop filter.
system.membus.snoop_filter.hit_single_requests            0                       # Number of requests hitting in the snoop filter with a single holder of the requested data.
system.membus.snoop_filter.hit_multi_requests            0                       # Number of requests hitting in the snoop filter with multiple (>1) holders of the requested data.
system.membus.snoop_filter.tot_snoops               0                       # Total number of snoops made to the snoop filter.
system.membus.snoop_filter.hit_single_snoops            0                       # Number of snoops hitting in the snoop filter with a single holder of the requested data.
system.membus.snoop_filter.hit_multi_snoops            0                       # Number of snoops hitting in the snoop filter with multiple (>1) holders of the requested data.
system.membus.pwrStateResidencyTicks::UNDEFINED    349594722                       # Cumulative time (in ticks) in various power states
system.membus.trans_dist::ReadResp              16037                       # Transaction distribution
system.membus.trans_dist::ReadExReq              2132                       # Transaction distribution
system.membus.trans_dist::ReadExResp             2132                       # Transaction distribution
system.membus.trans_dist::ReadSharedReq         16037                       # Transaction distribution
system.membus.pkt_count_system.l3.mem_side::system.mem_ctrls.port        36338                       # Packet count per connected master and slave (bytes)
system.membus.pkt_count_system.l3.mem_side::total        36338                       # Packet count per connected master and slave (bytes)
system.membus.pkt_count::total                  36338                       # Packet count per connected master and slave (bytes)
system.membus.pkt_size_system.l3.mem_side::system.mem_ctrls.port      1162816                       # Cumulative packet size per connected master and slave (bytes)
system.membus.pkt_size_system.l3.mem_side::total      1162816                       # Cumulative packet size per connected master and slave (bytes)
system.membus.pkt_size::total                 1162816                       # Cumulative packet size per connected master and slave (bytes)
system.membus.snoops                                0                       # Total snoops (count)
system.membus.snoopTraffic                          0                       # Total snoop traffic (bytes)
system.membus.snoop_fanout::samples             18169                       # Request fanout histogram
system.membus.snoop_fanout::mean                    0                       # Request fanout histogram
system.membus.snoop_fanout::stdev                   0                       # Request fanout histogram
system.membus.snoop_fanout::underflows              0      0.00%      0.00% # Request fanout histogram
system.membus.snoop_fanout::0                   18169    100.00%    100.00% # Request fanout histogram
system.membus.snoop_fanout::1                       0      0.00%    100.00% # Request fanout histogram
system.membus.snoop_fanout::overflows               0      0.00%    100.00% # Request fanout histogram
system.membus.snoop_fanout::min_value               0                       # Request fanout histogram
system.membus.snoop_fanout::max_value               0                       # Request fanout histogram
system.membus.snoop_fanout::total               18169                       # Request fanout histogram
system.membus.reqLayer8.occupancy            23461644                       # Layer occupancy (ticks)
system.membus.reqLayer8.utilization               6.7                       # Layer utilization (%)
system.membus.respLayer1.occupancy           95696668                       # Layer occupancy (ticks)
system.membus.respLayer1.utilization             27.4                       # Layer utilization (%)
system.tol3bus.snoop_filter.tot_requests        21653                       # Total number of requests made to the snoop filter.
system.tol3bus.snoop_filter.hit_single_requests         3303                       # Number of requests hitting in the snoop filter with a single holder of the requested data.
system.tol3bus.snoop_filter.hit_multi_requests            0                       # Number of requests hitting in the snoop filter with multiple (>1) holders of the requested data.
system.tol3bus.snoop_filter.tot_snoops              0                       # Total number of snoops made to the snoop filter.
system.tol3bus.snoop_filter.hit_single_snoops            0                       # Number of snoops hitting in the snoop filter with a single holder of the requested data.
system.tol3bus.snoop_filter.hit_multi_snoops            0                       # Number of snoops hitting in the snoop filter with multiple (>1) holders of the requested data.
system.tol3bus.pwrStateResidencyTicks::UNDEFINED    349594722                       # Cumulative time (in ticks) in various power states
system.tol3bus.trans_dist::ReadResp             16168                       # Transaction distribution
system.tol3bus.trans_dist::WritebackDirty          916                       # Transaction distribution
system.tol3bus.trans_dist::CleanEvict            2385                       # Transaction distribution
system.tol3bus.trans_dist::ReadExReq             2184                       # Transaction distribution
system.tol3bus.trans_dist::ReadExResp            2184                       # Transaction distribution
system.tol3bus.trans_dist::ReadSharedReq        16168                       # Transaction distribution
system.tol3bus.pkt_count_system.cpu0.l2cache.mem_side::system.l3.cpu_side        10052                       # Packet count per connected master and slave (bytes)
system.tol3bus.pkt_count_system.cpu1.l2cache.mem_side::system.l3.cpu_side        10045                       # Packet count per connected master and slave (bytes)
system.tol3bus.pkt_count_system.cpu2.l2cache.mem_side::system.l3.cpu_side         9936                       # Packet count per connected master and slave (bytes)
system.tol3bus.pkt_count_system.cpu3.l2cache.mem_side::system.l3.cpu_side         9972                       # Packet count per connected master and slave (bytes)
system.tol3bus.pkt_count::total                 40005                       # Packet count per connected master and slave (bytes)
system.tol3bus.pkt_size_system.cpu0.l2cache.mem_side::system.l3.cpu_side       304576                       # Cumulative packet size per connected master and slave (bytes)
system.tol3bus.pkt_size_system.cpu1.l2cache.mem_side::system.l3.cpu_side       310528                       # Cumulative packet size per connected master and slave (bytes)
system.tol3bus.pkt_size_system.cpu2.l2cache.mem_side::system.l3.cpu_side       309120                       # Cumulative packet size per connected master and slave (bytes)
system.tol3bus.pkt_size_system.cpu3.l2cache.mem_side::system.l3.cpu_side       308928                       # Cumulative packet size per connected master and slave (bytes)
system.tol3bus.pkt_size::total                1233152                       # Cumulative packet size per connected master and slave (bytes)
system.tol3bus.snoops                               0                       # Total snoops (count)
system.tol3bus.snoopTraffic                         0                       # Total snoop traffic (bytes)
system.tol3bus.snoop_fanout::samples            18352                       # Request fanout histogram
system.tol3bus.snoop_fanout::mean                   0                       # Request fanout histogram
system.tol3bus.snoop_fanout::stdev                  0                       # Request fanout histogram
system.tol3bus.snoop_fanout::underflows             0      0.00%      0.00% # Request fanout histogram
system.tol3bus.snoop_fanout::0                  18352    100.00%    100.00% # Request fanout histogram
system.tol3bus.snoop_fanout::1                      0      0.00%    100.00% # Request fanout histogram
system.tol3bus.snoop_fanout::2                      0      0.00%    100.00% # Request fanout histogram
system.tol3bus.snoop_fanout::3                      0      0.00%    100.00% # Request fanout histogram
system.tol3bus.snoop_fanout::4                      0      0.00%    100.00% # Request fanout histogram
system.tol3bus.snoop_fanout::overflows              0      0.00%    100.00% # Request fanout histogram
system.tol3bus.snoop_fanout::min_value              0                       # Request fanout histogram
system.tol3bus.snoop_fanout::max_value              0                       # Request fanout histogram
system.tol3bus.snoop_fanout::total              18352                       # Request fanout histogram
system.tol3bus.reqLayer0.occupancy           32181283                       # Layer occupancy (ticks)
system.tol3bus.reqLayer0.utilization              9.2                       # Layer utilization (%)
system.tol3bus.respLayer0.occupancy          14533965                       # Layer occupancy (ticks)
system.tol3bus.respLayer0.utilization             4.2                       # Layer utilization (%)
system.tol3bus.respLayer1.occupancy          14565130                       # Layer occupancy (ticks)
system.tol3bus.respLayer1.utilization             4.2                       # Layer utilization (%)
system.tol3bus.respLayer2.occupancy          14548025                       # Layer occupancy (ticks)
system.tol3bus.respLayer2.utilization             4.2                       # Layer utilization (%)
system.tol3bus.respLayer3.occupancy          14617310                       # Layer occupancy (ticks)
system.tol3bus.respLayer3.utilization             4.2                       # Layer utilization (%)

---------- End Simulation Statistics   ----------
