
---------- Begin Simulation Statistics ----------
sim_seconds                                  0.001227                       # Number of seconds simulated
sim_ticks                                  1227022083                       # Number of ticks simulated
final_tick                                 1227022083                       # Number of ticks from beginning of simulation (restored from checkpoints and never reset)
sim_freq                                 1000000000000                       # Frequency of simulated ticks
host_inst_rate                                 101196                       # Simulator instruction rate (inst/s)
host_op_rate                                   284882                       # Simulator op (including micro ops) rate (op/s)
host_tick_rate                               31263263                       # Simulator tick rate (ticks/s)
host_mem_usage                               33831784                       # Number of bytes of host memory used
host_seconds                                    39.25                       # Real time elapsed on the host
sim_insts                                     3971738                       # Number of instructions simulated
sim_ops                                      11181043                       # Number of ops (including micro ops) simulated
system.voltage_domain.voltage                       1                       # Voltage in Volts
system.clk_domain.clock                          1000                       # Clock period in ticks
system.mem_ctrls.pwrStateResidencyTicks::UNDEFINED   1227022083                       # Cumulative time (in ticks) in various power states
system.mem_ctrls.bytes_read::cpu0.inst          55488                       # Number of bytes read from this memory
system.mem_ctrls.bytes_read::cpu0.data         984832                       # Number of bytes read from this memory
system.mem_ctrls.bytes_read::cpu1.inst          55360                       # Number of bytes read from this memory
system.mem_ctrls.bytes_read::cpu1.data         982848                       # Number of bytes read from this memory
system.mem_ctrls.bytes_read::cpu2.inst          55488                       # Number of bytes read from this memory
system.mem_ctrls.bytes_read::cpu2.data         985344                       # Number of bytes read from this memory
system.mem_ctrls.bytes_read::cpu3.inst          54912                       # Number of bytes read from this memory
system.mem_ctrls.bytes_read::cpu3.data         974848                       # Number of bytes read from this memory
system.mem_ctrls.bytes_read::total            4149120                       # Number of bytes read from this memory
system.mem_ctrls.bytes_inst_read::cpu0.inst        55488                       # Number of instructions bytes read from this memory
system.mem_ctrls.bytes_inst_read::cpu1.inst        55360                       # Number of instructions bytes read from this memory
system.mem_ctrls.bytes_inst_read::cpu2.inst        55488                       # Number of instructions bytes read from this memory
system.mem_ctrls.bytes_inst_read::cpu3.inst        54912                       # Number of instructions bytes read from this memory
system.mem_ctrls.bytes_inst_read::total        221248                       # Number of instructions bytes read from this memory
system.mem_ctrls.bytes_written::writebacks       837248                       # Number of bytes written to this memory
system.mem_ctrls.bytes_written::total          837248                       # Number of bytes written to this memory
system.mem_ctrls.num_reads::cpu0.inst             867                       # Number of read requests responded to by this memory
system.mem_ctrls.num_reads::cpu0.data           15388                       # Number of read requests responded to by this memory
system.mem_ctrls.num_reads::cpu1.inst             865                       # Number of read requests responded to by this memory
system.mem_ctrls.num_reads::cpu1.data           15357                       # Number of read requests responded to by this memory
system.mem_ctrls.num_reads::cpu2.inst             867                       # Number of read requests responded to by this memory
system.mem_ctrls.num_reads::cpu2.data           15396                       # Number of read requests responded to by this memory
system.mem_ctrls.num_reads::cpu3.inst             858                       # Number of read requests responded to by this memory
system.mem_ctrls.num_reads::cpu3.data           15232                       # Number of read requests responded to by this memory
system.mem_ctrls.num_reads::total               64830                       # Number of read requests responded to by this memory
system.mem_ctrls.num_writes::writebacks         13082                       # Number of write requests responded to by this memory
system.mem_ctrls.num_writes::total              13082                       # Number of write requests responded to by this memory
system.mem_ctrls.bw_read::cpu0.inst          45221680                       # Total read bandwidth from this memory (bytes/s)
system.mem_ctrls.bw_read::cpu0.data         802619622                       # Total read bandwidth from this memory (bytes/s)
system.mem_ctrls.bw_read::cpu1.inst          45117362                       # Total read bandwidth from this memory (bytes/s)
system.mem_ctrls.bw_read::cpu1.data         801002699                       # Total read bandwidth from this memory (bytes/s)
system.mem_ctrls.bw_read::cpu2.inst          45221680                       # Total read bandwidth from this memory (bytes/s)
system.mem_ctrls.bw_read::cpu2.data         803036892                       # Total read bandwidth from this memory (bytes/s)
system.mem_ctrls.bw_read::cpu3.inst          44752251                       # Total read bandwidth from this memory (bytes/s)
system.mem_ctrls.bw_read::cpu3.data         794482849                       # Total read bandwidth from this memory (bytes/s)
system.mem_ctrls.bw_read::total            3381455034                       # Total read bandwidth from this memory (bytes/s)
system.mem_ctrls.bw_inst_read::cpu0.inst     45221680                       # Instruction read bandwidth from this memory (bytes/s)
system.mem_ctrls.bw_inst_read::cpu1.inst     45117362                       # Instruction read bandwidth from this memory (bytes/s)
system.mem_ctrls.bw_inst_read::cpu2.inst     45221680                       # Instruction read bandwidth from this memory (bytes/s)
system.mem_ctrls.bw_inst_read::cpu3.inst     44752251                       # Instruction read bandwidth from this memory (bytes/s)
system.mem_ctrls.bw_inst_read::total        180312973                       # Instruction read bandwidth from this memory (bytes/s)
system.mem_ctrls.bw_write::writebacks       682341428                       # Write bandwidth from this memory (bytes/s)
system.mem_ctrls.bw_write::total            682341428                       # Write bandwidth from this memory (bytes/s)
system.mem_ctrls.bw_total::writebacks       682341428                       # Total bandwidth to/from this memory (bytes/s)
system.mem_ctrls.bw_total::cpu0.inst         45221680                       # Total bandwidth to/from this memory (bytes/s)
system.mem_ctrls.bw_total::cpu0.data        802619622                       # Total bandwidth to/from this memory (bytes/s)
system.mem_ctrls.bw_total::cpu1.inst         45117362                       # Total bandwidth to/from this memory (bytes/s)
system.mem_ctrls.bw_total::cpu1.data        801002699                       # Total bandwidth to/from this memory (bytes/s)
system.mem_ctrls.bw_total::cpu2.inst         45221680                       # Total bandwidth to/from this memory (bytes/s)
system.mem_ctrls.bw_total::cpu2.data        803036892                       # Total bandwidth to/from this memory (bytes/s)
system.mem_ctrls.bw_total::cpu3.inst         44752251                       # Total bandwidth to/from this memory (bytes/s)
system.mem_ctrls.bw_total::cpu3.data        794482849                       # Total bandwidth to/from this memory (bytes/s)
system.mem_ctrls.bw_total::total           4063796462                       # Total bandwidth to/from this memory (bytes/s)
system.pwrStateResidencyTicks::UNDEFINED   1227022083                       # Cumulative time (in ticks) in various power states
system.cpu0.branchPred.lookups                 179791                       # Number of BP lookups
system.cpu0.branchPred.condPredicted           179791                       # Number of conditional branches predicted
system.cpu0.branchPred.condIncorrect             2785                       # Number of conditional branches incorrect
system.cpu0.branchPred.BTBLookups              154369                       # Number of BTB lookups
system.cpu0.branchPred.BTBHits                      0                       # Number of BTB hits
system.cpu0.branchPred.BTBCorrect                   0                       # Number of correct BTB predictions (this stat may not work properly.
system.cpu0.branchPred.BTBHitPct             0.000000                       # BTB Hit Percentage
system.cpu0.branchPred.usedRAS                  20068                       # Number of times the RAS was used to get a target.
system.cpu0.branchPred.RASInCorrect               361                       # Number of incorrect RAS predictions.
system.cpu0.branchPred.indirectLookups         154369                       # Number of indirect predictor lookups.
system.cpu0.branchPred.indirectHits             61859                       # Number of indirect target hits.
system.cpu0.branchPred.indirectMisses           92510                       # Number of indirect misses.
system.cpu0.branchPredindirectMispredicted         2103                       # Number of mispredicted indirect branches.
system.cpu_voltage_domain.voltage                   1                       # Voltage in Volts
system.cpu_clk_domain.clock                       333                       # Clock period in ticks
system.cpu0.dtb.walker.pwrStateResidencyTicks::UNDEFINED   1227022083                       # Cumulative time (in ticks) in various power states
system.cpu0.dtb.rdAccesses                     266598                       # TLB accesses on read requests
system.cpu0.dtb.wrAccesses                     180155                       # TLB accesses on write requests
system.cpu0.dtb.rdMisses                         3671                       # TLB misses on read requests
system.cpu0.dtb.wrMisses                         1142                       # TLB misses on write requests
system.cpu0.apic_clk_domain.clock                5328                       # Clock period in ticks
system.cpu0.interrupts.pwrStateResidencyTicks::UNDEFINED   1227022083                       # Cumulative time (in ticks) in various power states
system.cpu0.itb.walker.pwrStateResidencyTicks::UNDEFINED   1227022083                       # Cumulative time (in ticks) in various power states
system.cpu0.itb.rdAccesses                          0                       # TLB accesses on read requests
system.cpu0.itb.wrAccesses                     133621                       # TLB accesses on write requests
system.cpu0.itb.rdMisses                            0                       # TLB misses on read requests
system.cpu0.itb.wrMisses                          165                       # TLB misses on write requests
system.cpu0.workload.numSyscalls                   30                       # Number of system calls
system.cpu0.pwrStateResidencyTicks::ON     1227022083                       # Cumulative time (in ticks) in various power states
system.cpu0.numCycles                         3684752                       # number of cpu cycles simulated
system.cpu0.numWorkItemsStarted                     0                       # number of work items this cpu started
system.cpu0.numWorkItemsCompleted                   0                       # number of work items this cpu completed
system.cpu0.fetch.icacheStallCycles            160640                       # Number of cycles fetch is stalled on an Icache miss
system.cpu0.fetch.Insts                       1058350                       # Number of instructions fetch has processed
system.cpu0.fetch.Branches                     179791                       # Number of branches that fetch encountered
system.cpu0.fetch.predictedBranches             81927                       # Number of branches that fetch has predicted taken
system.cpu0.fetch.Cycles                      3444707                       # Number of cycles fetch has run and was not squashing or blocked
system.cpu0.fetch.SquashCycles                   5810                       # Number of cycles fetch has spent squashing
system.cpu0.fetch.MiscStallCycles                 149                       # Number of cycles fetch has spent waiting on interrupts, or bad addresses, or out of MSHRs
system.cpu0.fetch.PendingTrapStallCycles          492                       # Number of stall cycles due to pending traps
system.cpu0.fetch.PendingQuiesceStallCycles            6                       # Number of stall cycles due to pending quiesce instructions
system.cpu0.fetch.IcacheWaitRetryStallCycles          107                       # Number of stall cycles due to full MSHR
system.cpu0.fetch.CacheLines                   133522                       # Number of cache lines fetched
system.cpu0.fetch.IcacheSquashes                 1128                       # Number of outstanding Icache misses that were squashed
system.cpu0.fetch.rateDist::samples           3609006                       # Number of instructions fetched each cycle (Total)
system.cpu0.fetch.rateDist::mean             0.809765                       # Number of instructions fetched each cycle (Total)
system.cpu0.fetch.rateDist::stdev            2.284048                       # Number of instructions fetched each cycle (Total)
system.cpu0.fetch.rateDist::underflows              0      0.00%      0.00% # Number of instructions fetched each cycle (Total)
system.cpu0.fetch.rateDist::0                 3149390     87.26%     87.26% # Number of instructions fetched each cycle (Total)
system.cpu0.fetch.rateDist::1                   25341      0.70%     87.97% # Number of instructions fetched each cycle (Total)
system.cpu0.fetch.rateDist::2                   34548      0.96%     88.92% # Number of instructions fetched each cycle (Total)
system.cpu0.fetch.rateDist::3                   24770      0.69%     89.61% # Number of instructions fetched each cycle (Total)
system.cpu0.fetch.rateDist::4                   27449      0.76%     90.37% # Number of instructions fetched each cycle (Total)
system.cpu0.fetch.rateDist::5                   19373      0.54%     90.91% # Number of instructions fetched each cycle (Total)
system.cpu0.fetch.rateDist::6                   27130      0.75%     91.66% # Number of instructions fetched each cycle (Total)
system.cpu0.fetch.rateDist::7                   23783      0.66%     92.32% # Number of instructions fetched each cycle (Total)
system.cpu0.fetch.rateDist::8                  277222      7.68%    100.00% # Number of instructions fetched each cycle (Total)
system.cpu0.fetch.rateDist::overflows               0      0.00%    100.00% # Number of instructions fetched each cycle (Total)
system.cpu0.fetch.rateDist::min_value               0                       # Number of instructions fetched each cycle (Total)
system.cpu0.fetch.rateDist::max_value               8                       # Number of instructions fetched each cycle (Total)
system.cpu0.fetch.rateDist::total             3609006                       # Number of instructions fetched each cycle (Total)
system.cpu0.fetch.branchRate                 0.048793                       # Number of branch fetches per cycle
system.cpu0.fetch.rate                       0.287224                       # Number of inst fetches per cycle
system.cpu0.decode.IdleCycles                  126082                       # Number of cycles decode is idle
system.cpu0.decode.BlockedCycles              3111676                       # Number of cycles decode is blocked
system.cpu0.decode.RunCycles                   139277                       # Number of cycles decode is running
system.cpu0.decode.UnblockCycles               229066                       # Number of cycles decode is unblocking
system.cpu0.decode.SquashCycles                  2905                       # Number of cycles decode is squashing
system.cpu0.decode.DecodedInsts               2901974                       # Number of instructions handled by decode
system.cpu0.rename.SquashCycles                  2905                       # Number of cycles rename is squashing
system.cpu0.rename.IdleCycles                  206185                       # Number of cycles rename is idle
system.cpu0.rename.BlockCycles                1512135                       # Number of cycles rename is blocking
system.cpu0.rename.serializeStallCycles          3850                       # count of cycles rename stalled for serializing inst
system.cpu0.rename.RunCycles                   287504                       # Number of cycles rename is running
system.cpu0.rename.UnblockCycles              1596427                       # Number of cycles rename is unblocking
system.cpu0.rename.RenamedInsts               2891042                       # Number of instructions processed by rename
system.cpu0.rename.ROBFullEvents                  228                       # Number of times rename has blocked due to ROB full
system.cpu0.rename.IQFullEvents                396353                       # Number of times rename has blocked due to IQ full
system.cpu0.rename.LQFullEvents                   121                       # Number of times rename has blocked due to LQ full
system.cpu0.rename.SQFullEvents               1163325                       # Number of times rename has blocked due to SQ full
system.cpu0.rename.RenamedOperands            3974190                       # Number of destination operands rename has renamed
system.cpu0.rename.RenameLookups              9231108                       # Number of register rename lookups that rename has made
system.cpu0.rename.int_rename_lookups         5913742                       # Number of integer rename lookups
system.cpu0.rename.fp_rename_lookups            40438                       # Number of floating rename lookups
system.cpu0.rename.CommittedMaps              3873375                       # Number of HB maps that are committed
system.cpu0.rename.UndoneMaps                  100659                       # Number of HB maps that are undone due to squashing
system.cpu0.rename.serializingInsts                89                       # count of serializing insts renamed
system.cpu0.rename.tempSerializingInsts            86                       # count of temporary serializing insts renamed
system.cpu0.rename.skidInsts                  1078218                       # count of insts added to the skid buffer
system.cpu0.memDep0.insertedLoads              270065                       # Number of loads inserted to the mem dependence unit.
system.cpu0.memDep0.insertedStores             183935                       # Number of stores inserted to the mem dependence unit.
system.cpu0.memDep0.conflictingLoads            28901                       # Number of conflicting loads.
system.cpu0.memDep0.conflictingStores            7405                       # Number of conflicting stores.
system.cpu0.iq.iqInstsAdded                   2870912                       # Number of instructions added to the IQ (excludes non-spec)
system.cpu0.iq.iqNonSpecInstsAdded                597                       # Number of non-speculative instructions added to the IQ
system.cpu0.iq.iqInstsIssued                  2847656                       # Number of instructions issued
system.cpu0.iq.iqSquashedInstsIssued              857                       # Number of squashed instructions issued
system.cpu0.iq.iqSquashedInstsExamined          71259                       # Number of squashed instructions iterated over during squash; mainly for profiling
system.cpu0.iq.iqSquashedOperandsExamined        97162                       # Number of squashed operands that are examined and possibly removed from graph
system.cpu0.iq.iqSquashedNonSpecRemoved           471                       # Number of squashed non-spec instructions that were removed
system.cpu0.iq.issued_per_cycle::samples      3609006                       # Number of insts issued each cycle
system.cpu0.iq.issued_per_cycle::mean        0.789042                       # Number of insts issued each cycle
system.cpu0.iq.issued_per_cycle::stdev       1.549995                       # Number of insts issued each cycle
system.cpu0.iq.issued_per_cycle::underflows            0      0.00%      0.00% # Number of insts issued each cycle
system.cpu0.iq.issued_per_cycle::0            2576788     71.40%     71.40% # Number of insts issued each cycle
system.cpu0.iq.issued_per_cycle::1             275815      7.64%     79.04% # Number of insts issued each cycle
system.cpu0.iq.issued_per_cycle::2             278012      7.70%     86.74% # Number of insts issued each cycle
system.cpu0.iq.issued_per_cycle::3             219604      6.08%     92.83% # Number of insts issued each cycle
system.cpu0.iq.issued_per_cycle::4             100527      2.79%     95.61% # Number of insts issued each cycle
system.cpu0.iq.issued_per_cycle::5              66607      1.85%     97.46% # Number of insts issued each cycle
system.cpu0.iq.issued_per_cycle::6              42113      1.17%     98.63% # Number of insts issued each cycle
system.cpu0.iq.issued_per_cycle::7              27136      0.75%     99.38% # Number of insts issued each cycle
system.cpu0.iq.issued_per_cycle::8              22404      0.62%    100.00% # Number of insts issued each cycle
system.cpu0.iq.issued_per_cycle::overflows            0      0.00%    100.00% # Number of insts issued each cycle
system.cpu0.iq.issued_per_cycle::min_value            0                       # Number of insts issued each cycle
system.cpu0.iq.issued_per_cycle::max_value            8                       # Number of insts issued each cycle
system.cpu0.iq.issued_per_cycle::total        3609006                       # Number of insts issued each cycle
system.cpu0.iq.fu_full::No_OpClass                  0      0.00%      0.00% # attempts to use FU when none available
system.cpu0.iq.fu_full::IntAlu                  15666     65.49%     65.49% # attempts to use FU when none available
system.cpu0.iq.fu_full::IntMult                     0      0.00%     65.49% # attempts to use FU when none available
system.cpu0.iq.fu_full::IntDiv                      0      0.00%     65.49% # attempts to use FU when none available
system.cpu0.iq.fu_full::FloatAdd                   15      0.06%     65.56% # attempts to use FU when none available
system.cpu0.iq.fu_full::FloatCmp                    0      0.00%     65.56% # attempts to use FU when none available
system.cpu0.iq.fu_full::FloatCvt                    0      0.00%     65.56% # attempts to use FU when none available
system.cpu0.iq.fu_full::FloatMult                   0      0.00%     65.56% # attempts to use FU when none available
system.cpu0.iq.fu_full::FloatMultAcc                0      0.00%     65.56% # attempts to use FU when none available
system.cpu0.iq.fu_full::FloatDiv                    0      0.00%     65.56% # attempts to use FU when none available
system.cpu0.iq.fu_full::FloatMisc                   0      0.00%     65.56% # attempts to use FU when none available
system.cpu0.iq.fu_full::FloatSqrt                   0      0.00%     65.56% # attempts to use FU when none available
system.cpu0.iq.fu_full::SimdAdd                     0      0.00%     65.56% # attempts to use FU when none available
system.cpu0.iq.fu_full::SimdAddAcc                  0      0.00%     65.56% # attempts to use FU when none available
system.cpu0.iq.fu_full::SimdAlu                     0      0.00%     65.56% # attempts to use FU when none available
system.cpu0.iq.fu_full::SimdCmp                     0      0.00%     65.56% # attempts to use FU when none available
system.cpu0.iq.fu_full::SimdCvt                     0      0.00%     65.56% # attempts to use FU when none available
system.cpu0.iq.fu_full::SimdMisc                    0      0.00%     65.56% # attempts to use FU when none available
system.cpu0.iq.fu_full::SimdMult                    0      0.00%     65.56% # attempts to use FU when none available
system.cpu0.iq.fu_full::SimdMultAcc                 0      0.00%     65.56% # attempts to use FU when none available
system.cpu0.iq.fu_full::SimdShift                   0      0.00%     65.56% # attempts to use FU when none available
system.cpu0.iq.fu_full::SimdShiftAcc                0      0.00%     65.56% # attempts to use FU when none available
system.cpu0.iq.fu_full::SimdSqrt                    0      0.00%     65.56% # attempts to use FU when none available
system.cpu0.iq.fu_full::SimdFloatAdd                0      0.00%     65.56% # attempts to use FU when none available
system.cpu0.iq.fu_full::SimdFloatAlu                0      0.00%     65.56% # attempts to use FU when none available
system.cpu0.iq.fu_full::SimdFloatCmp                0      0.00%     65.56% # attempts to use FU when none available
system.cpu0.iq.fu_full::SimdFloatCvt                0      0.00%     65.56% # attempts to use FU when none available
system.cpu0.iq.fu_full::SimdFloatDiv                0      0.00%     65.56% # attempts to use FU when none available
system.cpu0.iq.fu_full::SimdFloatMisc               0      0.00%     65.56% # attempts to use FU when none available
system.cpu0.iq.fu_full::SimdFloatMult               0      0.00%     65.56% # attempts to use FU when none available
system.cpu0.iq.fu_full::SimdFloatMultAcc            0      0.00%     65.56% # attempts to use FU when none available
system.cpu0.iq.fu_full::SimdFloatSqrt               0      0.00%     65.56% # attempts to use FU when none available
system.cpu0.iq.fu_full::MemRead                  4263     17.82%     83.38% # attempts to use FU when none available
system.cpu0.iq.fu_full::MemWrite                 3803     15.90%     99.28% # attempts to use FU when none available
system.cpu0.iq.fu_full::FloatMemRead               10      0.04%     99.32% # attempts to use FU when none available
system.cpu0.iq.fu_full::FloatMemWrite             163      0.68%    100.00% # attempts to use FU when none available
system.cpu0.iq.fu_full::IprAccess                   0      0.00%    100.00% # attempts to use FU when none available
system.cpu0.iq.fu_full::InstPrefetch                0      0.00%    100.00% # attempts to use FU when none available
system.cpu0.iq.FU_type_0::No_OpClass            40120      1.41%      1.41% # Type of FU issued
system.cpu0.iq.FU_type_0::IntAlu              2040556     71.66%     73.07% # Type of FU issued
system.cpu0.iq.FU_type_0::IntMult               46294      1.63%     74.69% # Type of FU issued
system.cpu0.iq.FU_type_0::IntDiv               271030      9.52%     84.21% # Type of FU issued
system.cpu0.iq.FU_type_0::FloatAdd               1155      0.04%     84.25% # Type of FU issued
system.cpu0.iq.FU_type_0::FloatCmp                  0      0.00%     84.25% # Type of FU issued
system.cpu0.iq.FU_type_0::FloatCvt                  0      0.00%     84.25% # Type of FU issued
system.cpu0.iq.FU_type_0::FloatMult                 0      0.00%     84.25% # Type of FU issued
system.cpu0.iq.FU_type_0::FloatMultAcc              0      0.00%     84.25% # Type of FU issued
system.cpu0.iq.FU_type_0::FloatDiv                  0      0.00%     84.25% # Type of FU issued
system.cpu0.iq.FU_type_0::FloatMisc                 0      0.00%     84.25% # Type of FU issued
system.cpu0.iq.FU_type_0::FloatSqrt                 0      0.00%     84.25% # Type of FU issued
system.cpu0.iq.FU_type_0::SimdAdd                   0      0.00%     84.25% # Type of FU issued
system.cpu0.iq.FU_type_0::SimdAddAcc                0      0.00%     84.25% # Type of FU issued
system.cpu0.iq.FU_type_0::SimdAlu                   0      0.00%     84.25% # Type of FU issued
system.cpu0.iq.FU_type_0::SimdCmp                   0      0.00%     84.25% # Type of FU issued
system.cpu0.iq.FU_type_0::SimdCvt                   0      0.00%     84.25% # Type of FU issued
system.cpu0.iq.FU_type_0::SimdMisc                  0      0.00%     84.25% # Type of FU issued
system.cpu0.iq.FU_type_0::SimdMult                  0      0.00%     84.25% # Type of FU issued
system.cpu0.iq.FU_type_0::SimdMultAcc               0      0.00%     84.25% # Type of FU issued
system.cpu0.iq.FU_type_0::SimdShift                 0      0.00%     84.25% # Type of FU issued
system.cpu0.iq.FU_type_0::SimdShiftAcc              0      0.00%     84.25% # Type of FU issued
system.cpu0.iq.FU_type_0::SimdSqrt                  0      0.00%     84.25% # Type of FU issued
system.cpu0.iq.FU_type_0::SimdFloatAdd              0      0.00%     84.25% # Type of FU issued
system.cpu0.iq.FU_type_0::SimdFloatAlu              0      0.00%     84.25% # Type of FU issued
system.cpu0.iq.FU_type_0::SimdFloatCmp              0      0.00%     84.25% # Type of FU issued
system.cpu0.iq.FU_type_0::SimdFloatCvt              0      0.00%     84.25% # Type of FU issued
system.cpu0.iq.FU_type_0::SimdFloatDiv              0      0.00%     84.25% # Type of FU issued
system.cpu0.iq.FU_type_0::SimdFloatMisc             0      0.00%     84.25% # Type of FU issued
system.cpu0.iq.FU_type_0::SimdFloatMult             0      0.00%     84.25% # Type of FU issued
system.cpu0.iq.FU_type_0::SimdFloatMultAcc            0      0.00%     84.25% # Type of FU issued
system.cpu0.iq.FU_type_0::SimdFloatSqrt             0      0.00%     84.25% # Type of FU issued
system.cpu0.iq.FU_type_0::MemRead              265352      9.32%     93.57% # Type of FU issued
system.cpu0.iq.FU_type_0::MemWrite             143291      5.03%     98.60% # Type of FU issued
system.cpu0.iq.FU_type_0::FloatMemRead           2273      0.08%     98.68% # Type of FU issued
system.cpu0.iq.FU_type_0::FloatMemWrite         37585      1.32%    100.00% # Type of FU issued
system.cpu0.iq.FU_type_0::IprAccess                 0      0.00%    100.00% # Type of FU issued
system.cpu0.iq.FU_type_0::InstPrefetch              0      0.00%    100.00% # Type of FU issued
system.cpu0.iq.FU_type_0::total               2847656                       # Type of FU issued
system.cpu0.iq.rate                          0.772822                       # Inst issue rate
system.cpu0.iq.fu_busy_cnt                      23920                       # FU busy when requested
system.cpu0.iq.fu_busy_rate                  0.008400                       # FU busy rate (busy events/executed inst)
system.cpu0.iq.int_inst_queue_reads           9246573                       # Number of integer instruction queue reads
system.cpu0.iq.int_inst_queue_writes          2900901                       # Number of integer instruction queue writes
system.cpu0.iq.int_inst_queue_wakeup_accesses      2798140                       # Number of integer instruction queue wakeup accesses
system.cpu0.iq.fp_inst_queue_reads              82522                       # Number of floating instruction queue reads
system.cpu0.iq.fp_inst_queue_writes             41941                       # Number of floating instruction queue writes
system.cpu0.iq.fp_inst_queue_wakeup_accesses        41046                       # Number of floating instruction queue wakeup accesses
system.cpu0.iq.vec_inst_queue_reads                 0                       # Number of vector instruction queue reads
system.cpu0.iq.vec_inst_queue_writes                0                       # Number of vector instruction queue writes
system.cpu0.iq.vec_inst_queue_wakeup_accesses            0                       # Number of vector instruction queue wakeup accesses
system.cpu0.iq.int_alu_accesses               2790126                       # Number of integer alu accesses
system.cpu0.iq.fp_alu_accesses                  41330                       # Number of floating point alu accesses
system.cpu0.iq.vec_alu_accesses                     0                       # Number of vector alu accesses
system.cpu0.iew.lsq.thread0.forwLoads           84924                       # Number of loads that had data forwarded from stores
system.cpu0.iew.lsq.thread0.invAddrLoads            0                       # Number of loads ignored due to an invalid address
system.cpu0.iew.lsq.thread0.squashedLoads         8793                       # Number of loads squashed
system.cpu0.iew.lsq.thread0.ignoredResponses           21                       # Number of memory responses ignored because the instruction is squashed
system.cpu0.iew.lsq.thread0.memOrderViolation           77                       # Number of memory ordering violations
system.cpu0.iew.lsq.thread0.squashedStores         6279                       # Number of stores squashed
system.cpu0.iew.lsq.thread0.invAddrSwpfs            0                       # Number of software prefetches ignored due to an invalid address
system.cpu0.iew.lsq.thread0.blockedLoads            0                       # Number of blocked loads due to partial load-store forwarding
system.cpu0.iew.lsq.thread0.rescheduledLoads           26                       # Number of loads that were rescheduled
system.cpu0.iew.lsq.thread0.cacheBlocked           29                       # Number of times an access to memory failed due to the cache being blocked
system.cpu0.iew.iewIdleCycles                       0                       # Number of cycles IEW is idle
system.cpu0.iew.iewSquashCycles                  2905                       # Number of cycles IEW is squashing
system.cpu0.iew.iewBlockCycles                1094348                       # Number of cycles IEW is blocking
system.cpu0.iew.iewUnblockCycles               383674                       # Number of cycles IEW is unblocking
system.cpu0.iew.iewDispatchedInsts            2871509                       # Number of instructions dispatched to IQ
system.cpu0.iew.iewDispSquashedInsts              147                       # Number of squashed instructions skipped by dispatch
system.cpu0.iew.iewDispLoadInsts               270065                       # Number of dispatched load instructions
system.cpu0.iew.iewDispStoreInsts              183935                       # Number of dispatched store instructions
system.cpu0.iew.iewDispNonSpecInsts               250                       # Number of dispatched non-speculative instructions
system.cpu0.iew.iewIQFullEvents                  6719                       # Number of times the IQ has become full, causing a stall
system.cpu0.iew.iewLSQFullEvents               373325                       # Number of times the LSQ has become full, causing a stall
system.cpu0.iew.memOrderViolationEvents            77                       # Number of memory order violations
system.cpu0.iew.predictedTakenIncorrect           614                       # Number of branches that were predicted taken incorrectly
system.cpu0.iew.predictedNotTakenIncorrect         3107                       # Number of branches that were predicted not taken incorrectly
system.cpu0.iew.branchMispredicts                3721                       # Number of branch mispredicts detected at execute
system.cpu0.iew.iewExecutedInsts              2841646                       # Number of executed instructions
system.cpu0.iew.iewExecLoadInsts               266555                       # Number of load instructions executed
system.cpu0.iew.iewExecSquashedInsts             6010                       # Number of squashed instructions skipped in execute
system.cpu0.iew.exec_swp                            0                       # number of swp insts executed
system.cpu0.iew.exec_nop                            0                       # number of nop insts executed
system.cpu0.iew.exec_refs                      446698                       # number of memory reference insts executed
system.cpu0.iew.exec_branches                  170217                       # Number of branches executed
system.cpu0.iew.exec_stores                    180143                       # Number of stores executed
system.cpu0.iew.exec_rate                    0.771191                       # Inst execution rate
system.cpu0.iew.wb_sent                       2840287                       # cumulative count of insts sent to commit
system.cpu0.iew.wb_count                      2839186                       # cumulative count of insts written-back
system.cpu0.iew.wb_producers                  2219057                       # num instructions producing a value
system.cpu0.iew.wb_consumers                  5943359                       # num instructions consuming a value
system.cpu0.iew.wb_rate                      0.770523                       # insts written-back per cycle
system.cpu0.iew.wb_fanout                    0.373367                       # average fanout of values written-back
system.cpu0.commit.commitSquashedInsts          71300                       # The number of squashed insts skipped by commit
system.cpu0.commit.commitNonSpecStalls            126                       # The number of times commit has been forced to stall to communicate backwards
system.cpu0.commit.branchMispredicts             2847                       # The number of times a branch was mispredicted
system.cpu0.commit.committed_per_cycle::samples      3597676                       # Number of insts commited each cycle
system.cpu0.commit.committed_per_cycle::mean     0.778314                       # Number of insts commited each cycle
system.cpu0.commit.committed_per_cycle::stdev     1.867948                       # Number of insts commited each cycle
system.cpu0.commit.committed_per_cycle::underflows            0      0.00%      0.00% # Number of insts commited each cycle
system.cpu0.commit.committed_per_cycle::0      2616725     72.73%     72.73% # Number of insts commited each cycle
system.cpu0.commit.committed_per_cycle::1       557539     15.50%     88.23% # Number of insts commited each cycle
system.cpu0.commit.committed_per_cycle::2        69901      1.94%     90.17% # Number of insts commited each cycle
system.cpu0.commit.committed_per_cycle::3        64482      1.79%     91.97% # Number of insts commited each cycle
system.cpu0.commit.committed_per_cycle::4        38262      1.06%     93.03% # Number of insts commited each cycle
system.cpu0.commit.committed_per_cycle::5        57680      1.60%     94.63% # Number of insts commited each cycle
system.cpu0.commit.committed_per_cycle::6        27683      0.77%     95.40% # Number of insts commited each cycle
system.cpu0.commit.committed_per_cycle::7        21442      0.60%     96.00% # Number of insts commited each cycle
system.cpu0.commit.committed_per_cycle::8       143962      4.00%    100.00% # Number of insts commited each cycle
system.cpu0.commit.committed_per_cycle::overflows            0      0.00%    100.00% # Number of insts commited each cycle
system.cpu0.commit.committed_per_cycle::min_value            0                       # Number of insts commited each cycle
system.cpu0.commit.committed_per_cycle::max_value            8                       # Number of insts commited each cycle
system.cpu0.commit.committed_per_cycle::total      3597676                       # Number of insts commited each cycle
system.cpu0.commit.committedInsts              995158                       # Number of instructions committed
system.cpu0.commit.committedOps               2800123                       # Number of ops (including micro ops) committed
system.cpu0.commit.swp_count                        0                       # Number of s/w prefetches committed
system.cpu0.commit.refs                        438895                       # Number of memory references committed
system.cpu0.commit.loads                       261251                       # Number of loads committed
system.cpu0.commit.membars                         64                       # Number of memory barriers committed
system.cpu0.commit.branches                    167124                       # Number of branches committed
system.cpu0.commit.vec_insts                        0                       # Number of committed Vector instructions.
system.cpu0.commit.fp_insts                     40759                       # Number of committed floating point instructions.
system.cpu0.commit.int_insts                  2759865                       # Number of committed integer instructions.
system.cpu0.commit.function_calls               19217                       # Number of function calls committed.
system.cpu0.commit.op_class_0::No_OpClass        39175      1.40%      1.40% # Class of committed instruction
system.cpu0.commit.op_class_0::IntAlu         2003906     71.56%     72.96% # Class of committed instruction
system.cpu0.commit.op_class_0::IntMult          46069      1.65%     74.61% # Class of committed instruction
system.cpu0.commit.op_class_0::IntDiv          270998      9.68%     84.29% # Class of committed instruction
system.cpu0.commit.op_class_0::FloatAdd          1080      0.04%     84.33% # Class of committed instruction
system.cpu0.commit.op_class_0::FloatCmp             0      0.00%     84.33% # Class of committed instruction
system.cpu0.commit.op_class_0::FloatCvt             0      0.00%     84.33% # Class of committed instruction
system.cpu0.commit.op_class_0::FloatMult            0      0.00%     84.33% # Class of committed instruction
system.cpu0.commit.op_class_0::FloatMultAcc            0      0.00%     84.33% # Class of committed instruction
system.cpu0.commit.op_class_0::FloatDiv             0      0.00%     84.33% # Class of committed instruction
system.cpu0.commit.op_class_0::FloatMisc            0      0.00%     84.33% # Class of committed instruction
system.cpu0.commit.op_class_0::FloatSqrt            0      0.00%     84.33% # Class of committed instruction
system.cpu0.commit.op_class_0::SimdAdd              0      0.00%     84.33% # Class of committed instruction
system.cpu0.commit.op_class_0::SimdAddAcc            0      0.00%     84.33% # Class of committed instruction
system.cpu0.commit.op_class_0::SimdAlu              0      0.00%     84.33% # Class of committed instruction
system.cpu0.commit.op_class_0::SimdCmp              0      0.00%     84.33% # Class of committed instruction
system.cpu0.commit.op_class_0::SimdCvt              0      0.00%     84.33% # Class of committed instruction
system.cpu0.commit.op_class_0::SimdMisc             0      0.00%     84.33% # Class of committed instruction
system.cpu0.commit.op_class_0::SimdMult             0      0.00%     84.33% # Class of committed instruction
system.cpu0.commit.op_class_0::SimdMultAcc            0      0.00%     84.33% # Class of committed instruction
system.cpu0.commit.op_class_0::SimdShift            0      0.00%     84.33% # Class of committed instruction
system.cpu0.commit.op_class_0::SimdShiftAcc            0      0.00%     84.33% # Class of committed instruction
system.cpu0.commit.op_class_0::SimdSqrt             0      0.00%     84.33% # Class of committed instruction
system.cpu0.commit.op_class_0::SimdFloatAdd            0      0.00%     84.33% # Class of committed instruction
system.cpu0.commit.op_class_0::SimdFloatAlu            0      0.00%     84.33% # Class of committed instruction
system.cpu0.commit.op_class_0::SimdFloatCmp            0      0.00%     84.33% # Class of committed instruction
system.cpu0.commit.op_class_0::SimdFloatCvt            0      0.00%     84.33% # Class of committed instruction
system.cpu0.commit.op_class_0::SimdFloatDiv            0      0.00%     84.33% # Class of committed instruction
system.cpu0.commit.op_class_0::SimdFloatMisc            0      0.00%     84.33% # Class of committed instruction
system.cpu0.commit.op_class_0::SimdFloatMult            0      0.00%     84.33% # Class of committed instruction
system.cpu0.commit.op_class_0::SimdFloatMultAcc            0      0.00%     84.33% # Class of committed instruction
system.cpu0.commit.op_class_0::SimdFloatSqrt            0      0.00%     84.33% # Class of committed instruction
system.cpu0.commit.op_class_0::MemRead         259096      9.25%     93.58% # Class of committed instruction
system.cpu0.commit.op_class_0::MemWrite        140243      5.01%     98.59% # Class of committed instruction
system.cpu0.commit.op_class_0::FloatMemRead         2155      0.08%     98.66% # Class of committed instruction
system.cpu0.commit.op_class_0::FloatMemWrite        37401      1.34%    100.00% # Class of committed instruction
system.cpu0.commit.op_class_0::IprAccess            0      0.00%    100.00% # Class of committed instruction
system.cpu0.commit.op_class_0::InstPrefetch            0      0.00%    100.00% # Class of committed instruction
system.cpu0.commit.op_class_0::total          2800123                       # Class of committed instruction
system.cpu0.commit.bw_lim_events               143962                       # number cycles where commit BW limit reached
system.cpu0.rob.rob_reads                     6325137                       # The number of ROB reads
system.cpu0.rob.rob_writes                    5754541                       # The number of ROB writes
system.cpu0.timesIdled                            497                       # Number of times that the entire CPU went into an idle state and unscheduled itself
system.cpu0.idleCycles                          75746                       # Total number of cycles that the CPU has spent unscheduled due to idling
system.cpu0.committedInsts                     995158                       # Number of Instructions Simulated
system.cpu0.committedOps                      2800123                       # Number of Ops (including micro ops) Simulated
system.cpu0.cpi                              3.702680                       # CPI: Cycles Per Instruction
system.cpu0.cpi_total                        3.702680                       # CPI: Total CPI of All Threads
system.cpu0.ipc                              0.270075                       # IPC: Instructions Per Cycle
system.cpu0.ipc_total                        0.270075                       # IPC: Total IPC of All Threads
system.cpu0.int_regfile_reads                 5826640                       # number of integer regfile reads
system.cpu0.int_regfile_writes                3073276                       # number of integer regfile writes
system.cpu0.fp_regfile_reads                    40016                       # number of floating regfile reads
system.cpu0.fp_regfile_writes                    3361                       # number of floating regfile writes
system.cpu0.cc_regfile_reads                  2450047                       # number of cc regfile reads
system.cpu0.cc_regfile_writes                  839285                       # number of cc regfile writes
system.cpu0.misc_regfile_reads                 772154                       # number of misc regfile reads
system.cpu0.dcache.tags.pwrStateResidencyTicks::UNDEFINED   1227022083                       # Cumulative time (in ticks) in various power states
system.cpu0.dcache.tags.replacements            14931                       # number of replacements
system.cpu0.dcache.tags.tagsinuse          497.615488                       # Cycle average of tags in use
system.cpu0.dcache.tags.total_refs             323251                       # Total number of references to valid blocks.
system.cpu0.dcache.tags.sampled_refs            15443                       # Sample count of references to valid blocks.
system.cpu0.dcache.tags.avg_refs            20.931879                       # Average number of references to valid blocks.
system.cpu0.dcache.tags.warmup_cycle           150183                       # Cycle when the warmup percentage was hit.
system.cpu0.dcache.tags.occ_blocks::cpu0.data   497.615488                       # Average occupied blocks per requestor
system.cpu0.dcache.tags.occ_percent::cpu0.data     0.971905                       # Average percentage of cache occupancy
system.cpu0.dcache.tags.occ_percent::total     0.971905                       # Average percentage of cache occupancy
system.cpu0.dcache.tags.occ_task_id_blocks::1024          512                       # Occupied blocks per task id
system.cpu0.dcache.tags.age_task_id_blocks_1024::0           16                       # Occupied blocks per task id
system.cpu0.dcache.tags.age_task_id_blocks_1024::1          247                       # Occupied blocks per task id
system.cpu0.dcache.tags.age_task_id_blocks_1024::2          236                       # Occupied blocks per task id
system.cpu0.dcache.tags.age_task_id_blocks_1024::3           13                       # Occupied blocks per task id
system.cpu0.dcache.tags.occ_task_id_percent::1024            1                       # Percentage of cache occupancy per task id
system.cpu0.dcache.tags.tag_accesses          2887427                       # Number of tag accesses
system.cpu0.dcache.tags.data_accesses         2887427                       # Number of data accesses
system.cpu0.dcache.pwrStateResidencyTicks::UNDEFINED   1227022083                       # Cumulative time (in ticks) in various power states
system.cpu0.dcache.ReadReq_hits::cpu0.data       154141                       # number of ReadReq hits
system.cpu0.dcache.ReadReq_hits::total         154141                       # number of ReadReq hits
system.cpu0.dcache.WriteReq_hits::cpu0.data       169101                       # number of WriteReq hits
system.cpu0.dcache.WriteReq_hits::total        169101                       # number of WriteReq hits
system.cpu0.dcache.demand_hits::cpu0.data       323242                       # number of demand (read+write) hits
system.cpu0.dcache.demand_hits::total          323242                       # number of demand (read+write) hits
system.cpu0.dcache.overall_hits::cpu0.data       323242                       # number of overall hits
system.cpu0.dcache.overall_hits::total         323242                       # number of overall hits
system.cpu0.dcache.ReadReq_misses::cpu0.data        27211                       # number of ReadReq misses
system.cpu0.dcache.ReadReq_misses::total        27211                       # number of ReadReq misses
system.cpu0.dcache.WriteReq_misses::cpu0.data         8545                       # number of WriteReq misses
system.cpu0.dcache.WriteReq_misses::total         8545                       # number of WriteReq misses
system.cpu0.dcache.demand_misses::cpu0.data        35756                       # number of demand (read+write) misses
system.cpu0.dcache.demand_misses::total         35756                       # number of demand (read+write) misses
system.cpu0.dcache.overall_misses::cpu0.data        35756                       # number of overall misses
system.cpu0.dcache.overall_misses::total        35756                       # number of overall misses
system.cpu0.dcache.ReadReq_miss_latency::cpu0.data   1754737839                       # number of ReadReq miss cycles
system.cpu0.dcache.ReadReq_miss_latency::total   1754737839                       # number of ReadReq miss cycles
system.cpu0.dcache.WriteReq_miss_latency::cpu0.data    578111309                       # number of WriteReq miss cycles
system.cpu0.dcache.WriteReq_miss_latency::total    578111309                       # number of WriteReq miss cycles
system.cpu0.dcache.demand_miss_latency::cpu0.data   2332849148                       # number of demand (read+write) miss cycles
system.cpu0.dcache.demand_miss_latency::total   2332849148                       # number of demand (read+write) miss cycles
system.cpu0.dcache.overall_miss_latency::cpu0.data   2332849148                       # number of overall miss cycles
system.cpu0.dcache.overall_miss_latency::total   2332849148                       # number of overall miss cycles
system.cpu0.dcache.ReadReq_accesses::cpu0.data       181352                       # number of ReadReq accesses(hits+misses)
system.cpu0.dcache.ReadReq_accesses::total       181352                       # number of ReadReq accesses(hits+misses)
system.cpu0.dcache.WriteReq_accesses::cpu0.data       177646                       # number of WriteReq accesses(hits+misses)
system.cpu0.dcache.WriteReq_accesses::total       177646                       # number of WriteReq accesses(hits+misses)
system.cpu0.dcache.demand_accesses::cpu0.data       358998                       # number of demand (read+write) accesses
system.cpu0.dcache.demand_accesses::total       358998                       # number of demand (read+write) accesses
system.cpu0.dcache.overall_accesses::cpu0.data       358998                       # number of overall (read+write) accesses
system.cpu0.dcache.overall_accesses::total       358998                       # number of overall (read+write) accesses
system.cpu0.dcache.ReadReq_miss_rate::cpu0.data     0.150045                       # miss rate for ReadReq accesses
system.cpu0.dcache.ReadReq_miss_rate::total     0.150045                       # miss rate for ReadReq accesses
system.cpu0.dcache.WriteReq_miss_rate::cpu0.data     0.048101                       # miss rate for WriteReq accesses
system.cpu0.dcache.WriteReq_miss_rate::total     0.048101                       # miss rate for WriteReq accesses
system.cpu0.dcache.demand_miss_rate::cpu0.data     0.099599                       # miss rate for demand accesses
system.cpu0.dcache.demand_miss_rate::total     0.099599                       # miss rate for demand accesses
system.cpu0.dcache.overall_miss_rate::cpu0.data     0.099599                       # miss rate for overall accesses
system.cpu0.dcache.overall_miss_rate::total     0.099599                       # miss rate for overall accesses
system.cpu0.dcache.ReadReq_avg_miss_latency::cpu0.data 64486.341516                       # average ReadReq miss latency
system.cpu0.dcache.ReadReq_avg_miss_latency::total 64486.341516                       # average ReadReq miss latency
system.cpu0.dcache.WriteReq_avg_miss_latency::cpu0.data 67654.922060                       # average WriteReq miss latency
system.cpu0.dcache.WriteReq_avg_miss_latency::total 67654.922060                       # average WriteReq miss latency
system.cpu0.dcache.demand_avg_miss_latency::cpu0.data 65243.571652                       # average overall miss latency
system.cpu0.dcache.demand_avg_miss_latency::total 65243.571652                       # average overall miss latency
system.cpu0.dcache.overall_avg_miss_latency::cpu0.data 65243.571652                       # average overall miss latency
system.cpu0.dcache.overall_avg_miss_latency::total 65243.571652                       # average overall miss latency
system.cpu0.dcache.blocked_cycles::no_mshrs          986                       # number of cycles access was blocked
system.cpu0.dcache.blocked_cycles::no_targets            0                       # number of cycles access was blocked
system.cpu0.dcache.blocked::no_mshrs               10                       # number of cycles access was blocked
system.cpu0.dcache.blocked::no_targets              0                       # number of cycles access was blocked
system.cpu0.dcache.avg_blocked_cycles::no_mshrs    98.600000                       # average number of cycles each access was blocked
system.cpu0.dcache.avg_blocked_cycles::no_targets          nan                       # average number of cycles each access was blocked
system.cpu0.dcache.writebacks::writebacks         8115                       # number of writebacks
system.cpu0.dcache.writebacks::total             8115                       # number of writebacks
system.cpu0.dcache.ReadReq_mshr_hits::cpu0.data        20301                       # number of ReadReq MSHR hits
system.cpu0.dcache.ReadReq_mshr_hits::total        20301                       # number of ReadReq MSHR hits
system.cpu0.dcache.WriteReq_mshr_hits::cpu0.data            4                       # number of WriteReq MSHR hits
system.cpu0.dcache.WriteReq_mshr_hits::total            4                       # number of WriteReq MSHR hits
system.cpu0.dcache.demand_mshr_hits::cpu0.data        20305                       # number of demand (read+write) MSHR hits
system.cpu0.dcache.demand_mshr_hits::total        20305                       # number of demand (read+write) MSHR hits
system.cpu0.dcache.overall_mshr_hits::cpu0.data        20305                       # number of overall MSHR hits
system.cpu0.dcache.overall_mshr_hits::total        20305                       # number of overall MSHR hits
system.cpu0.dcache.ReadReq_mshr_misses::cpu0.data         6910                       # number of ReadReq MSHR misses
system.cpu0.dcache.ReadReq_mshr_misses::total         6910                       # number of ReadReq MSHR misses
system.cpu0.dcache.WriteReq_mshr_misses::cpu0.data         8541                       # number of WriteReq MSHR misses
system.cpu0.dcache.WriteReq_mshr_misses::total         8541                       # number of WriteReq MSHR misses
system.cpu0.dcache.demand_mshr_misses::cpu0.data        15451                       # number of demand (read+write) MSHR misses
system.cpu0.dcache.demand_mshr_misses::total        15451                       # number of demand (read+write) MSHR misses
system.cpu0.dcache.overall_mshr_misses::cpu0.data        15451                       # number of overall MSHR misses
system.cpu0.dcache.overall_mshr_misses::total        15451                       # number of overall MSHR misses
system.cpu0.dcache.ReadReq_mshr_miss_latency::cpu0.data    449432784                       # number of ReadReq MSHR miss cycles
system.cpu0.dcache.ReadReq_mshr_miss_latency::total    449432784                       # number of ReadReq MSHR miss cycles
system.cpu0.dcache.WriteReq_mshr_miss_latency::cpu0.data    572160933                       # number of WriteReq MSHR miss cycles
system.cpu0.dcache.WriteReq_mshr_miss_latency::total    572160933                       # number of WriteReq MSHR miss cycles
system.cpu0.dcache.demand_mshr_miss_latency::cpu0.data   1021593717                       # number of demand (read+write) MSHR miss cycles
system.cpu0.dcache.demand_mshr_miss_latency::total   1021593717                       # number of demand (read+write) MSHR miss cycles
system.cpu0.dcache.overall_mshr_miss_latency::cpu0.data   1021593717                       # number of overall MSHR miss cycles
system.cpu0.dcache.overall_mshr_miss_latency::total   1021593717                       # number of overall MSHR miss cycles
system.cpu0.dcache.ReadReq_mshr_miss_rate::cpu0.data     0.038103                       # mshr miss rate for ReadReq accesses
system.cpu0.dcache.ReadReq_mshr_miss_rate::total     0.038103                       # mshr miss rate for ReadReq accesses
system.cpu0.dcache.WriteReq_mshr_miss_rate::cpu0.data     0.048079                       # mshr miss rate for WriteReq accesses
system.cpu0.dcache.WriteReq_mshr_miss_rate::total     0.048079                       # mshr miss rate for WriteReq accesses
system.cpu0.dcache.demand_mshr_miss_rate::cpu0.data     0.043039                       # mshr miss rate for demand accesses
system.cpu0.dcache.demand_mshr_miss_rate::total     0.043039                       # mshr miss rate for demand accesses
system.cpu0.dcache.overall_mshr_miss_rate::cpu0.data     0.043039                       # mshr miss rate for overall accesses
system.cpu0.dcache.overall_mshr_miss_rate::total     0.043039                       # mshr miss rate for overall accesses
system.cpu0.dcache.ReadReq_avg_mshr_miss_latency::cpu0.data 65040.923878                       # average ReadReq mshr miss latency
system.cpu0.dcache.ReadReq_avg_mshr_miss_latency::total 65040.923878                       # average ReadReq mshr miss latency
system.cpu0.dcache.WriteReq_avg_mshr_miss_latency::cpu0.data 66989.923077                       # average WriteReq mshr miss latency
system.cpu0.dcache.WriteReq_avg_mshr_miss_latency::total 66989.923077                       # average WriteReq mshr miss latency
system.cpu0.dcache.demand_avg_mshr_miss_latency::cpu0.data 66118.291179                       # average overall mshr miss latency
system.cpu0.dcache.demand_avg_mshr_miss_latency::total 66118.291179                       # average overall mshr miss latency
system.cpu0.dcache.overall_avg_mshr_miss_latency::cpu0.data 66118.291179                       # average overall mshr miss latency
system.cpu0.dcache.overall_avg_mshr_miss_latency::total 66118.291179                       # average overall mshr miss latency
system.cpu0.dtb_walker_cache.tags.pwrStateResidencyTicks::UNDEFINED   1227022083                       # Cumulative time (in ticks) in various power states
system.cpu0.dtb_walker_cache.tags.replacements            0                       # number of replacements
system.cpu0.dtb_walker_cache.tags.tagsinuse            0                       # Cycle average of tags in use
system.cpu0.dtb_walker_cache.tags.total_refs            0                       # Total number of references to valid blocks.
system.cpu0.dtb_walker_cache.tags.sampled_refs            0                       # Sample count of references to valid blocks.
system.cpu0.dtb_walker_cache.tags.avg_refs          nan                       # Average number of references to valid blocks.
system.cpu0.dtb_walker_cache.tags.warmup_cycle            0                       # Cycle when the warmup percentage was hit.
system.cpu0.dtb_walker_cache.tags.tag_accesses            0                       # Number of tag accesses
system.cpu0.dtb_walker_cache.tags.data_accesses            0                       # Number of data accesses
system.cpu0.dtb_walker_cache.pwrStateResidencyTicks::UNDEFINED   1227022083                       # Cumulative time (in ticks) in various power states
system.cpu0.dtb_walker_cache.blocked_cycles::no_mshrs            0                       # number of cycles access was blocked
system.cpu0.dtb_walker_cache.blocked_cycles::no_targets            0                       # number of cycles access was blocked
system.cpu0.dtb_walker_cache.blocked::no_mshrs            0                       # number of cycles access was blocked
system.cpu0.dtb_walker_cache.blocked::no_targets            0                       # number of cycles access was blocked
system.cpu0.dtb_walker_cache.avg_blocked_cycles::no_mshrs          nan                       # average number of cycles each access was blocked
system.cpu0.dtb_walker_cache.avg_blocked_cycles::no_targets          nan                       # average number of cycles each access was blocked
system.cpu0.icache.tags.pwrStateResidencyTicks::UNDEFINED   1227022083                       # Cumulative time (in ticks) in various power states
system.cpu0.icache.tags.replacements              427                       # number of replacements
system.cpu0.icache.tags.tagsinuse          505.304980                       # Cycle average of tags in use
system.cpu0.icache.tags.total_refs             132341                       # Total number of references to valid blocks.
system.cpu0.icache.tags.sampled_refs              939                       # Sample count of references to valid blocks.
system.cpu0.icache.tags.avg_refs           140.938232                       # Average number of references to valid blocks.
system.cpu0.icache.tags.warmup_cycle            76257                       # Cycle when the warmup percentage was hit.
system.cpu0.icache.tags.occ_blocks::cpu0.inst   505.304980                       # Average occupied blocks per requestor
system.cpu0.icache.tags.occ_percent::cpu0.inst     0.986924                       # Average percentage of cache occupancy
system.cpu0.icache.tags.occ_percent::total     0.986924                       # Average percentage of cache occupancy
system.cpu0.icache.tags.occ_task_id_blocks::1024          512                       # Occupied blocks per task id
system.cpu0.icache.tags.age_task_id_blocks_1024::1           10                       # Occupied blocks per task id
system.cpu0.icache.tags.age_task_id_blocks_1024::2          116                       # Occupied blocks per task id
system.cpu0.icache.tags.age_task_id_blocks_1024::3          386                       # Occupied blocks per task id
system.cpu0.icache.tags.occ_task_id_percent::1024            1                       # Percentage of cache occupancy per task id
system.cpu0.icache.tags.tag_accesses          1069107                       # Number of tag accesses
system.cpu0.icache.tags.data_accesses         1069107                       # Number of data accesses
system.cpu0.icache.pwrStateResidencyTicks::UNDEFINED   1227022083                       # Cumulative time (in ticks) in various power states
system.cpu0.icache.ReadReq_hits::cpu0.inst       132341                       # number of ReadReq hits
system.cpu0.icache.ReadReq_hits::total         132341                       # number of ReadReq hits
system.cpu0.icache.demand_hits::cpu0.inst       132341                       # number of demand (read+write) hits
system.cpu0.icache.demand_hits::total          132341                       # number of demand (read+write) hits
system.cpu0.icache.overall_hits::cpu0.inst       132341                       # number of overall hits
system.cpu0.icache.overall_hits::total         132341                       # number of overall hits
system.cpu0.icache.ReadReq_misses::cpu0.inst         1180                       # number of ReadReq misses
system.cpu0.icache.ReadReq_misses::total         1180                       # number of ReadReq misses
system.cpu0.icache.demand_misses::cpu0.inst         1180                       # number of demand (read+write) misses
system.cpu0.icache.demand_misses::total          1180                       # number of demand (read+write) misses
system.cpu0.icache.overall_misses::cpu0.inst         1180                       # number of overall misses
system.cpu0.icache.overall_misses::total         1180                       # number of overall misses
system.cpu0.icache.ReadReq_miss_latency::cpu0.inst     73781143                       # number of ReadReq miss cycles
system.cpu0.icache.ReadReq_miss_latency::total     73781143                       # number of ReadReq miss cycles
system.cpu0.icache.demand_miss_latency::cpu0.inst     73781143                       # number of demand (read+write) miss cycles
system.cpu0.icache.demand_miss_latency::total     73781143                       # number of demand (read+write) miss cycles
system.cpu0.icache.overall_miss_latency::cpu0.inst     73781143                       # number of overall miss cycles
system.cpu0.icache.overall_miss_latency::total     73781143                       # number of overall miss cycles
system.cpu0.icache.ReadReq_accesses::cpu0.inst       133521                       # number of ReadReq accesses(hits+misses)
system.cpu0.icache.ReadReq_accesses::total       133521                       # number of ReadReq accesses(hits+misses)
system.cpu0.icache.demand_accesses::cpu0.inst       133521                       # number of demand (read+write) accesses
system.cpu0.icache.demand_accesses::total       133521                       # number of demand (read+write) accesses
system.cpu0.icache.overall_accesses::cpu0.inst       133521                       # number of overall (read+write) accesses
system.cpu0.icache.overall_accesses::total       133521                       # number of overall (read+write) accesses
system.cpu0.icache.ReadReq_miss_rate::cpu0.inst     0.008838                       # miss rate for ReadReq accesses
system.cpu0.icache.ReadReq_miss_rate::total     0.008838                       # miss rate for ReadReq accesses
system.cpu0.icache.demand_miss_rate::cpu0.inst     0.008838                       # miss rate for demand accesses
system.cpu0.icache.demand_miss_rate::total     0.008838                       # miss rate for demand accesses
system.cpu0.icache.overall_miss_rate::cpu0.inst     0.008838                       # miss rate for overall accesses
system.cpu0.icache.overall_miss_rate::total     0.008838                       # miss rate for overall accesses
system.cpu0.icache.ReadReq_avg_miss_latency::cpu0.inst 62526.392373                       # average ReadReq miss latency
system.cpu0.icache.ReadReq_avg_miss_latency::total 62526.392373                       # average ReadReq miss latency
system.cpu0.icache.demand_avg_miss_latency::cpu0.inst 62526.392373                       # average overall miss latency
system.cpu0.icache.demand_avg_miss_latency::total 62526.392373                       # average overall miss latency
system.cpu0.icache.overall_avg_miss_latency::cpu0.inst 62526.392373                       # average overall miss latency
system.cpu0.icache.overall_avg_miss_latency::total 62526.392373                       # average overall miss latency
system.cpu0.icache.blocked_cycles::no_mshrs         1922                       # number of cycles access was blocked
system.cpu0.icache.blocked_cycles::no_targets            0                       # number of cycles access was blocked
system.cpu0.icache.blocked::no_mshrs               20                       # number of cycles access was blocked
system.cpu0.icache.blocked::no_targets              0                       # number of cycles access was blocked
system.cpu0.icache.avg_blocked_cycles::no_mshrs    96.100000                       # average number of cycles each access was blocked
system.cpu0.icache.avg_blocked_cycles::no_targets          nan                       # average number of cycles each access was blocked
system.cpu0.icache.writebacks::writebacks          427                       # number of writebacks
system.cpu0.icache.writebacks::total              427                       # number of writebacks
system.cpu0.icache.ReadReq_mshr_hits::cpu0.inst          241                       # number of ReadReq MSHR hits
system.cpu0.icache.ReadReq_mshr_hits::total          241                       # number of ReadReq MSHR hits
system.cpu0.icache.demand_mshr_hits::cpu0.inst          241                       # number of demand (read+write) MSHR hits
system.cpu0.icache.demand_mshr_hits::total          241                       # number of demand (read+write) MSHR hits
system.cpu0.icache.overall_mshr_hits::cpu0.inst          241                       # number of overall MSHR hits
system.cpu0.icache.overall_mshr_hits::total          241                       # number of overall MSHR hits
system.cpu0.icache.ReadReq_mshr_misses::cpu0.inst          939                       # number of ReadReq MSHR misses
system.cpu0.icache.ReadReq_mshr_misses::total          939                       # number of ReadReq MSHR misses
system.cpu0.icache.demand_mshr_misses::cpu0.inst          939                       # number of demand (read+write) MSHR misses
system.cpu0.icache.demand_mshr_misses::total          939                       # number of demand (read+write) MSHR misses
system.cpu0.icache.overall_mshr_misses::cpu0.inst          939                       # number of overall MSHR misses
system.cpu0.icache.overall_mshr_misses::total          939                       # number of overall MSHR misses
system.cpu0.icache.ReadReq_mshr_miss_latency::cpu0.inst     59722217                       # number of ReadReq MSHR miss cycles
system.cpu0.icache.ReadReq_mshr_miss_latency::total     59722217                       # number of ReadReq MSHR miss cycles
system.cpu0.icache.demand_mshr_miss_latency::cpu0.inst     59722217                       # number of demand (read+write) MSHR miss cycles
system.cpu0.icache.demand_mshr_miss_latency::total     59722217                       # number of demand (read+write) MSHR miss cycles
system.cpu0.icache.overall_mshr_miss_latency::cpu0.inst     59722217                       # number of overall MSHR miss cycles
system.cpu0.icache.overall_mshr_miss_latency::total     59722217                       # number of overall MSHR miss cycles
system.cpu0.icache.ReadReq_mshr_miss_rate::cpu0.inst     0.007033                       # mshr miss rate for ReadReq accesses
system.cpu0.icache.ReadReq_mshr_miss_rate::total     0.007033                       # mshr miss rate for ReadReq accesses
system.cpu0.icache.demand_mshr_miss_rate::cpu0.inst     0.007033                       # mshr miss rate for demand accesses
system.cpu0.icache.demand_mshr_miss_rate::total     0.007033                       # mshr miss rate for demand accesses
system.cpu0.icache.overall_mshr_miss_rate::cpu0.inst     0.007033                       # mshr miss rate for overall accesses
system.cpu0.icache.overall_mshr_miss_rate::total     0.007033                       # mshr miss rate for overall accesses
system.cpu0.icache.ReadReq_avg_mshr_miss_latency::cpu0.inst 63601.935037                       # average ReadReq mshr miss latency
system.cpu0.icache.ReadReq_avg_mshr_miss_latency::total 63601.935037                       # average ReadReq mshr miss latency
system.cpu0.icache.demand_avg_mshr_miss_latency::cpu0.inst 63601.935037                       # average overall mshr miss latency
system.cpu0.icache.demand_avg_mshr_miss_latency::total 63601.935037                       # average overall mshr miss latency
system.cpu0.icache.overall_avg_mshr_miss_latency::cpu0.inst 63601.935037                       # average overall mshr miss latency
system.cpu0.icache.overall_avg_mshr_miss_latency::total 63601.935037                       # average overall mshr miss latency
system.cpu0.itb_walker_cache.tags.pwrStateResidencyTicks::UNDEFINED   1227022083                       # Cumulative time (in ticks) in various power states
system.cpu0.itb_walker_cache.tags.replacements            0                       # number of replacements
system.cpu0.itb_walker_cache.tags.tagsinuse            0                       # Cycle average of tags in use
system.cpu0.itb_walker_cache.tags.total_refs            0                       # Total number of references to valid blocks.
system.cpu0.itb_walker_cache.tags.sampled_refs            0                       # Sample count of references to valid blocks.
system.cpu0.itb_walker_cache.tags.avg_refs          nan                       # Average number of references to valid blocks.
system.cpu0.itb_walker_cache.tags.warmup_cycle            0                       # Cycle when the warmup percentage was hit.
system.cpu0.itb_walker_cache.tags.tag_accesses            0                       # Number of tag accesses
system.cpu0.itb_walker_cache.tags.data_accesses            0                       # Number of data accesses
system.cpu0.itb_walker_cache.pwrStateResidencyTicks::UNDEFINED   1227022083                       # Cumulative time (in ticks) in various power states
system.cpu0.itb_walker_cache.blocked_cycles::no_mshrs            0                       # number of cycles access was blocked
system.cpu0.itb_walker_cache.blocked_cycles::no_targets            0                       # number of cycles access was blocked
system.cpu0.itb_walker_cache.blocked::no_mshrs            0                       # number of cycles access was blocked
system.cpu0.itb_walker_cache.blocked::no_targets            0                       # number of cycles access was blocked
system.cpu0.itb_walker_cache.avg_blocked_cycles::no_mshrs          nan                       # average number of cycles each access was blocked
system.cpu0.itb_walker_cache.avg_blocked_cycles::no_targets          nan                       # average number of cycles each access was blocked
system.cpu0.l2cache.tags.pwrStateResidencyTicks::UNDEFINED   1227022083                       # Cumulative time (in ticks) in various power states
system.cpu0.l2cache.tags.replacements           12314                       # number of replacements
system.cpu0.l2cache.tags.tagsinuse        3671.473406                       # Cycle average of tags in use
system.cpu0.l2cache.tags.total_refs             15329                       # Total number of references to valid blocks.
system.cpu0.l2cache.tags.sampled_refs           16410                       # Sample count of references to valid blocks.
system.cpu0.l2cache.tags.avg_refs            0.934126                       # Average number of references to valid blocks.
system.cpu0.l2cache.tags.warmup_cycle           73000                       # Cycle when the warmup percentage was hit.
system.cpu0.l2cache.tags.occ_blocks::writebacks    48.768137                       # Average occupied blocks per requestor
system.cpu0.l2cache.tags.occ_blocks::cpu0.inst   275.245015                       # Average occupied blocks per requestor
system.cpu0.l2cache.tags.occ_blocks::cpu0.data  3347.460255                       # Average occupied blocks per requestor
system.cpu0.l2cache.tags.occ_percent::writebacks     0.011906                       # Average percentage of cache occupancy
system.cpu0.l2cache.tags.occ_percent::cpu0.inst     0.067198                       # Average percentage of cache occupancy
system.cpu0.l2cache.tags.occ_percent::cpu0.data     0.817251                       # Average percentage of cache occupancy
system.cpu0.l2cache.tags.occ_percent::total     0.896356                       # Average percentage of cache occupancy
system.cpu0.l2cache.tags.occ_task_id_blocks::1024         4096                       # Occupied blocks per task id
system.cpu0.l2cache.tags.age_task_id_blocks_1024::0          128                       # Occupied blocks per task id
system.cpu0.l2cache.tags.age_task_id_blocks_1024::1          265                       # Occupied blocks per task id
system.cpu0.l2cache.tags.age_task_id_blocks_1024::2         1604                       # Occupied blocks per task id
system.cpu0.l2cache.tags.age_task_id_blocks_1024::3         2099                       # Occupied blocks per task id
system.cpu0.l2cache.tags.occ_task_id_percent::1024            1                       # Percentage of cache occupancy per task id
system.cpu0.l2cache.tags.tag_accesses          143370                       # Number of tag accesses
system.cpu0.l2cache.tags.data_accesses         143370                       # Number of data accesses
system.cpu0.l2cache.pwrStateResidencyTicks::UNDEFINED   1227022083                       # Cumulative time (in ticks) in various power states
system.cpu0.l2cache.WritebackDirty_hits::writebacks         8115                       # number of WritebackDirty hits
system.cpu0.l2cache.WritebackDirty_hits::total         8115                       # number of WritebackDirty hits
system.cpu0.l2cache.WritebackClean_hits::writebacks          424                       # number of WritebackClean hits
system.cpu0.l2cache.WritebackClean_hits::total          424                       # number of WritebackClean hits
system.cpu0.l2cache.UpgradeReq_hits::cpu0.data            7                       # number of UpgradeReq hits
system.cpu0.l2cache.UpgradeReq_hits::total            7                       # number of UpgradeReq hits
system.cpu0.l2cache.ReadExReq_hits::cpu0.data            8                       # number of ReadExReq hits
system.cpu0.l2cache.ReadExReq_hits::total            8                       # number of ReadExReq hits
system.cpu0.l2cache.ReadCleanReq_hits::cpu0.inst           63                       # number of ReadCleanReq hits
system.cpu0.l2cache.ReadCleanReq_hits::total           63                       # number of ReadCleanReq hits
system.cpu0.l2cache.ReadSharedReq_hits::cpu0.data           16                       # number of ReadSharedReq hits
system.cpu0.l2cache.ReadSharedReq_hits::total           16                       # number of ReadSharedReq hits
[...]
system.l3.demand_mshr_miss_latency::cpu2.inst     47375464                       # number of demand (read+write) MSHR miss cycles
system.l3.demand_mshr_miss_latency::cpu2.data    789535887                       # number of demand (read+write) MSHR miss cycles
system.l3.demand_mshr_miss_latency::cpu3.inst     46710719                       # number of demand (read+write) MSHR miss cycles
system.l3.demand_mshr_miss_latency::cpu3.data    793966687                       # number of demand (read+write) MSHR miss cycles
system.l3.demand_mshr_miss_latency::total   3354335884                       # number of demand (read+write) MSHR miss cycles
system.l3.overall_mshr_miss_latency::cpu0.inst     46241212                       # number of overall MSHR miss cycles
system.l3.overall_mshr_miss_latency::cpu0.data    791773452                       # number of overall MSHR miss cycles
system.l3.overall_mshr_miss_latency::cpu1.inst     44803825                       # number of overall MSHR miss cycles
system.l3.overall_mshr_miss_latency::cpu1.data    793928638                       # number of overall MSHR miss cycles
system.l3.overall_mshr_miss_latency::cpu2.inst     47375464                       # number of overall MSHR miss cycles
system.l3.overall_mshr_miss_latency::cpu2.data    789535887                       # number of overall MSHR miss cycles
system.l3.overall_mshr_miss_latency::cpu3.inst     46710719                       # number of overall MSHR miss cycles
system.l3.overall_mshr_miss_latency::cpu3.data    793966687                       # number of overall MSHR miss cycles
system.l3.overall_mshr_miss_latency::total   3354335884                       # number of overall MSHR miss cycles
system.l3.CleanEvict_mshr_miss_rate::writebacks          inf                       # mshr miss rate for CleanEvict accesses
system.l3.CleanEvict_mshr_miss_rate::total          inf                       # mshr miss rate for CleanEvict accesses
system.l3.ReadExReq_mshr_miss_rate::cpu0.data     0.999765                       # mshr miss rate for ReadExReq accesses
system.l3.ReadExReq_mshr_miss_rate::cpu1.data     0.999531                       # mshr miss rate for ReadExReq accesses
system.l3.ReadExReq_mshr_miss_rate::cpu2.data     0.999765                       # mshr miss rate for ReadExReq accesses
system.l3.ReadExReq_mshr_miss_rate::cpu3.data     0.999648                       # mshr miss rate for ReadExReq accesses
system.l3.ReadExReq_mshr_miss_rate::total     0.999678                       # mshr miss rate for ReadExReq accesses
system.l3.ReadSharedReq_mshr_miss_rate::cpu0.inst     0.989726                       # mshr miss rate for ReadSharedReq accesses
system.l3.ReadSharedReq_mshr_miss_rate::cpu0.data     0.995648                       # mshr miss rate for ReadSharedReq accesses
system.l3.ReadSharedReq_mshr_miss_rate::cpu1.inst     0.988571                       # mshr miss rate for ReadSharedReq accesses
system.l3.ReadSharedReq_mshr_miss_rate::cpu1.data     0.993600                       # mshr miss rate for ReadSharedReq accesses
system.l3.ReadSharedReq_mshr_miss_rate::cpu2.inst     0.990857                       # mshr miss rate for ReadSharedReq accesses
system.l3.ReadSharedReq_mshr_miss_rate::cpu2.data     0.988066                       # mshr miss rate for ReadSharedReq accesses
system.l3.ReadSharedReq_mshr_miss_rate::cpu3.inst     0.991908                       # mshr miss rate for ReadSharedReq accesses
system.l3.ReadSharedReq_mshr_miss_rate::cpu3.data     0.991716                       # mshr miss rate for ReadSharedReq accesses
system.l3.ReadSharedReq_mshr_miss_rate::total     0.992026                       # mshr miss rate for ReadSharedReq accesses
system.l3.demand_mshr_miss_rate::cpu0.inst     0.989726                       # mshr miss rate for demand accesses
system.l3.demand_mshr_miss_rate::cpu0.data     0.997925                       # mshr miss rate for demand accesses
system.l3.demand_mshr_miss_rate::cpu1.inst     0.988571                       # mshr miss rate for demand accesses
system.l3.demand_mshr_miss_rate::cpu1.data     0.996884                       # mshr miss rate for demand accesses
system.l3.demand_mshr_miss_rate::cpu2.inst     0.990857                       # mshr miss rate for demand accesses
system.l3.demand_mshr_miss_rate::cpu2.data     0.994509                       # mshr miss rate for demand accesses
system.l3.demand_mshr_miss_rate::cpu3.inst     0.991908                       # mshr miss rate for demand accesses
system.l3.demand_mshr_miss_rate::cpu3.data     0.996142                       # mshr miss rate for demand accesses
system.l3.demand_mshr_miss_rate::total       0.996036                       # mshr miss rate for demand accesses
system.l3.overall_mshr_miss_rate::cpu0.inst     0.989726                       # mshr miss rate for overall accesses
system.l3.overall_mshr_miss_rate::cpu0.data     0.997925                       # mshr miss rate for overall accesses
system.l3.overall_mshr_miss_rate::cpu1.inst     0.988571                       # mshr miss rate for overall accesses
system.l3.overall_mshr_miss_rate::cpu1.data     0.996884                       # mshr miss rate for overall accesses
system.l3.overall_mshr_miss_rate::cpu2.inst     0.990857                       # mshr miss rate for overall accesses
system.l3.overall_mshr_miss_rate::cpu2.data     0.994509                       # mshr miss rate for overall accesses
system.l3.overall_mshr_miss_rate::cpu3.inst     0.991908                       # mshr miss rate for overall accesses
system.l3.overall_mshr_miss_rate::cpu3.data     0.996142                       # mshr miss rate for overall accesses
system.l3.overall_mshr_miss_rate::total      0.996036                       # mshr miss rate for overall accesses
system.l3.ReadExReq_avg_mshr_miss_latency::cpu0.data 52194.035195                       # average ReadExReq mshr miss latency
system.l3.ReadExReq_avg_mshr_miss_latency::cpu1.data 52198.344201                       # average ReadExReq mshr miss latency
system.l3.ReadExReq_avg_mshr_miss_latency::cpu2.data 51322.241436                       # average ReadExReq mshr miss latency
system.l3.ReadExReq_avg_mshr_miss_latency::cpu3.data 53182.065432                       # average ReadExReq mshr miss latency
system.l3.ReadExReq_avg_mshr_miss_latency::total 52224.281647                       # average ReadExReq mshr miss latency
system.l3.ReadSharedReq_avg_mshr_miss_latency::cpu0.inst 53334.731257                       # average ReadSharedReq mshr miss latency
system.l3.ReadSharedReq_avg_mshr_miss_latency::cpu0.data 50534.891608                       # average ReadSharedReq mshr miss latency
system.l3.ReadSharedReq_avg_mshr_miss_latency::cpu1.inst 51796.329480                       # average ReadSharedReq mshr miss latency
system.l3.ReadSharedReq_avg_mshr_miss_latency::cpu1.data 51066.221197                       # average ReadSharedReq mshr miss latency
system.l3.ReadSharedReq_avg_mshr_miss_latency::cpu2.inst 54642.980392                       # average ReadSharedReq mshr miss latency
system.l3.ReadSharedReq_avg_mshr_miss_latency::cpu2.data 51231.824942                       # average ReadSharedReq mshr miss latency
system.l3.ReadSharedReq_avg_mshr_miss_latency::cpu3.inst 54441.397436                       # average ReadSharedReq mshr miss latency
system.l3.ReadSharedReq_avg_mshr_miss_latency::cpu3.data 50780.136187                       # average ReadSharedReq mshr miss latency
system.l3.ReadSharedReq_avg_mshr_miss_latency::total 51201.874740                       # average ReadSharedReq mshr miss latency
system.l3.demand_avg_mshr_miss_latency::cpu0.inst 53334.731257                       # average overall mshr miss latency
system.l3.demand_avg_mshr_miss_latency::cpu0.data 51453.954510                       # average overall mshr miss latency
system.l3.demand_avg_mshr_miss_latency::cpu1.inst 51796.329480                       # average overall mshr miss latency
system.l3.demand_avg_mshr_miss_latency::cpu1.data 51694.793463                       # average overall mshr miss latency
system.l3.demand_avg_mshr_miss_latency::cpu2.inst 54642.980392                       # average overall mshr miss latency
system.l3.demand_avg_mshr_miss_latency::cpu2.data 51281.884061                       # average overall mshr miss latency
system.l3.demand_avg_mshr_miss_latency::cpu3.inst 54441.397436                       # average overall mshr miss latency
system.l3.demand_avg_mshr_miss_latency::cpu3.data 52124.913800                       # average overall mshr miss latency
system.l3.demand_avg_mshr_miss_latency::total 51739.690642                       # average overall mshr miss latency
system.l3.overall_avg_mshr_miss_latency::cpu0.inst 53334.731257                       # average overall mshr miss latency
system.l3.overall_avg_mshr_miss_latency::cpu0.data 51453.954510                       # average overall mshr miss latency
system.l3.overall_avg_mshr_miss_latency::cpu1.inst 51796.329480                       # average overall mshr miss latency
system.l3.overall_avg_mshr_miss_latency::cpu1.data 51694.793463                       # average overall mshr miss latency
system.l3.overall_avg_mshr_miss_latency::cpu2.inst 54642.980392                       # average overall mshr miss latency
system.l3.overall_avg_mshr_miss_latency::cpu2.data 51281.884061                       # average overall mshr miss latency
system.l3.overall_avg_mshr_miss_latency::cpu3.inst 54441.397436                       # average overall mshr miss latency
system.l3.overall_avg_mshr_miss_latency::cpu3.data 52124.913800                       # average overall mshr miss latency
system.l3.overall_avg_mshr_miss_latency::total 51739.690642                       # average overall mshr miss latency
system.membus.snoop_filter.tot_requests        100566                       # Total number of requests made to the snoop filter.
system.membus.snoop_filter.hit_single_requests        35736                       # Number of requests hitting in the snoop filter with a single holder of the requested data.
system.membus.snoop_filter.hit_multi_requests            0                       # Number of requests hitting in the snoop filter with multiple (>1) holders of the requested data.
system.membus.snoop_filter.tot_snoops               0                       # Total number of snoops made to the snoop filter.
system.membus.snoop_filter.hit_single_snoops            0                       # Number of snoops hitting in the snoop filter with a single holder of the requested data.
system.membus.snoop_filter.hit_multi_snoops            0                       # Number of snoops hitting in the snoop filter with multiple (>1) holders of the requested data.
system.membus.pwrStateResidencyTicks::UNDEFINED   1227022083                       # Cumulative time (in ticks) in various power states
system.membus.trans_dist::ReadResp              30727                       # Transaction distribution
system.membus.trans_dist::WritebackDirty        13082                       # Transaction distribution
system.membus.trans_dist::CleanEvict            22654                       # Transaction distribution
system.membus.trans_dist::ReadExReq             34103                       # Transaction distribution
system.membus.trans_dist::ReadExResp            34103                       # Transaction distribution
system.membus.trans_dist::ReadSharedReq         30727                       # Transaction distribution
system.membus.pkt_count_system.l3.mem_side::system.mem_ctrls.port       165396                       # Packet count per connected master and slave (bytes)
system.membus.pkt_count_system.l3.mem_side::total       165396                       # Packet count per connected master and slave (bytes)
system.membus.pkt_count::total                 165396                       # Packet count per connected master and slave (bytes)
system.membus.pkt_size_system.l3.mem_side::system.mem_ctrls.port      4986368                       # Cumulative packet size per connected master and slave (bytes)
system.membus.pkt_size_system.l3.mem_side::total      4986368                       # Cumulative packet size per connected master and slave (bytes)
system.membus.pkt_size::total                 4986368                       # Cumulative packet size per connected master and slave (bytes)
system.membus.snoops                                0                       # Total snoops (count)
system.membus.snoopTraffic                          0                       # Total snoop traffic (bytes)
system.membus.snoop_fanout::samples             64830                       # Request fanout histogram
system.membus.snoop_fanout::mean                    0                       # Request fanout histogram
system.membus.snoop_fanout::stdev                   0                       # Request fanout histogram
system.membus.snoop_fanout::underflows              0      0.00%      0.00% # Request fanout histogram
system.membus.snoop_fanout::0                   64830    100.00%    100.00% # Request fanout histogram
system.membus.snoop_fanout::1                       0      0.00%    100.00% # Request fanout histogram
system.membus.snoop_fanout::overflows               0      0.00%    100.00% # Request fanout histogram
system.membus.snoop_fanout::min_value               0                       # Request fanout histogram
system.membus.snoop_fanout::max_value               0                       # Request fanout histogram
system.membus.snoop_fanout::total               64830                       # Request fanout histogram
system.membus.reqLayer8.occupancy           177985409                       # Layer occupancy (ticks)
system.membus.reqLayer8.utilization              14.5                       # Layer utilization (%)
system.membus.respLayer1.occupancy          348663044                       # Layer occupancy (ticks)
system.membus.respLayer1.utilization             28.4                       # Layer utilization (%)
system.tol3bus.snoop_filter.tot_requests       112259                       # Total number of requests made to the snoop filter.
system.tol3bus.snoop_filter.hit_single_requests        47170                       # Number of requests hitting in the snoop filter with a single holder of the requested data.
system.tol3bus.snoop_filter.hit_multi_requests            0                       # Number of requests hitting in the snoop filter with multiple (>1) holders of the requested data.
system.tol3bus.snoop_filter.tot_snoops            141                       # Total number of snoops made to the snoop filter.
system.tol3bus.snoop_filter.hit_single_snoops          141                       # Number of snoops hitting in the snoop filter with a single holder of the requested data.
system.tol3bus.snoop_filter.hit_multi_snoops            0                       # Number of snoops hitting in the snoop filter with multiple (>1) holders of the requested data.
system.tol3bus.pwrStateResidencyTicks::UNDEFINED   1227022083                       # Cumulative time (in ticks) in various power states
system.tol3bus.trans_dist::ReadResp             30973                       # Transaction distribution
system.tol3bus.trans_dist::WritebackDirty        32782                       # Transaction distribution
system.tol3bus.trans_dist::CleanEvict           50252                       # Transaction distribution
system.tol3bus.trans_dist::ReadExReq            34114                       # Transaction distribution
system.tol3bus.trans_dist::ReadExResp           34114                       # Transaction distribution
system.tol3bus.trans_dist::ReadSharedReq        30975                       # Transaction distribution
system.tol3bus.pkt_count_system.cpu0.l2cache.mem_side::system.l3.cpu_side        44392                       # Packet count per connected master and slave (bytes)
system.tol3bus.pkt_count_system.cpu1.l2cache.mem_side::system.l3.cpu_side        44351                       # Packet count per connected master and slave (bytes)
system.tol3bus.pkt_count_system.cpu2.l2cache.mem_side::system.l3.cpu_side        44582                       # Packet count per connected master and slave (bytes)
system.tol3bus.pkt_count_system.cpu3.l2cache.mem_side::system.l3.cpu_side        44021                       # Packet count per connected master and slave (bytes)
system.tol3bus.pkt_count::total                177346                       # Packet count per connected master and slave (bytes)
system.tol3bus.pkt_size_system.cpu0.l2cache.mem_side::system.l3.cpu_side      1355264                       # Cumulative packet size per connected master and slave (bytes)
system.tol3bus.pkt_size_system.cpu1.l2cache.mem_side::system.l3.cpu_side      1355776                       # Cumulative packet size per connected master and slave (bytes)
system.tol3bus.pkt_size_system.cpu2.l2cache.mem_side::system.l3.cpu_side      1363200                       # Cumulative packet size per connected master and slave (bytes)
system.tol3bus.pkt_size_system.cpu3.l2cache.mem_side::system.l3.cpu_side      1352128                       # Cumulative packet size per connected master and slave (bytes)
system.tol3bus.pkt_size::total                5426368                       # Cumulative packet size per connected master and slave (bytes)
system.tol3bus.snoops                           35864                       # Total snoops (count)
system.tol3bus.snoopTraffic                    837248                       # Total snoop traffic (bytes)
system.tol3bus.snoop_fanout::samples           100953                       # Request fanout histogram
system.tol3bus.snoop_fanout::mean            0.001397                       # Request fanout histogram
system.tol3bus.snoop_fanout::stdev           0.037346                       # Request fanout histogram
system.tol3bus.snoop_fanout::underflows             0      0.00%      0.00% # Request fanout histogram
system.tol3bus.snoop_fanout::0                 100812     99.86%     99.86% # Request fanout histogram
system.tol3bus.snoop_fanout::1                    141      0.14%    100.00% # Request fanout histogram
system.tol3bus.snoop_fanout::2                      0      0.00%    100.00% # Request fanout histogram
system.tol3bus.snoop_fanout::3                      0      0.00%    100.00% # Request fanout histogram
system.tol3bus.snoop_fanout::4                      0      0.00%    100.00% # Request fanout histogram
system.tol3bus.snoop_fanout::overflows              0      0.00%    100.00% # Request fanout histogram
system.tol3bus.snoop_fanout::min_value              0                       # Request fanout histogram
system.tol3bus.snoop_fanout::max_value              1                       # Request fanout histogram
system.tol3bus.snoop_fanout::total             100953                       # Request fanout histogram
system.tol3bus.reqLayer0.occupancy          194590071                       # Layer occupancy (ticks)
system.tol3bus.reqLayer0.utilization             15.9                       # Layer utilization (%)
system.tol3bus.respLayer0.occupancy          51719668                       # Layer occupancy (ticks)
system.tol3bus.respLayer0.utilization             4.2                       # Layer utilization (%)
system.tol3bus.respLayer1.occupancy          51668268                       # Layer occupancy (ticks)
system.tol3bus.respLayer1.utilization             4.2                       # Layer utilization (%)
system.tol3bus.respLayer2.occupancy          51922703                       # Layer occupancy (ticks)
system.tol3bus.respLayer2.utilization             4.2                       # Layer utilization (%)
system.tol3bus.respLayer3.occupancy          51292373                       # Layer occupancy (ticks)
system.tol3bus.respLayer3.utilization             4.2                       # Layer utilization (%)

---------- End Simulation Statistics   ----------
