
---------- Begin Simulation Statistics ----------
sim_seconds                                  0.037528                       # Number of seconds simulated
sim_ticks                                 37527676092                       # Number of ticks simulated
final_tick                                37527676092                       # Number of ticks from beginning of simulation (restored from checkpoints and never reset)
sim_freq                                 1000000000000                       # Frequency of simulated ticks
host_inst_rate                                  66470                       # Simulator instruction rate (inst/s)
host_op_rate                                   130477                       # Simulator op (including micro ops) rate (op/s)
host_tick_rate                               62555894                       # Simulator tick rate (ticks/s)
host_mem_usage                               33853624                       # Number of bytes of host memory used
host_seconds                                   599.91                       # Real time elapsed on the host
sim_insts                                    39875662                       # Number of instructions simulated
sim_ops                                      78273915                       # Number of ops (including micro ops) simulated
system.voltage_domain.voltage                       1                       # Voltage in Volts
system.clk_domain.clock                          1000                       # Clock period in ticks
system.mem_ctrls.pwrStateResidencyTicks::UNDEFINED  37527676092                       # Cumulative time (in ticks) in various power states
system.mem_ctrls.bytes_read::cpu0.inst          82880                       # Number of bytes read from this memory
system.mem_ctrls.bytes_read::cpu0.data       23828544                       # Number of bytes read from this memory
system.mem_ctrls.bytes_read::cpu1.inst          82624                       # Number of bytes read from this memory
system.mem_ctrls.bytes_read::cpu1.data       23663616                       # Number of bytes read from this memory
system.mem_ctrls.bytes_read::cpu2.inst          82496                       # Number of bytes read from this memory
system.mem_ctrls.bytes_read::cpu2.data       23800512                       # Number of bytes read from this memory
system.mem_ctrls.bytes_read::cpu3.inst          83200                       # Number of bytes read from this memory
system.mem_ctrls.bytes_read::cpu3.data       23739200                       # Number of bytes read from this memory
system.mem_ctrls.bytes_read::total           95363072                       # Number of bytes read from this memory
system.mem_ctrls.bytes_inst_read::cpu0.inst        82880                       # Number of instructions bytes read from this memory
system.mem_ctrls.bytes_inst_read::cpu1.inst        82624                       # Number of instructions bytes read from this memory
system.mem_ctrls.bytes_inst_read::cpu2.inst        82496                       # Number of instructions bytes read from this memory
system.mem_ctrls.bytes_inst_read::cpu3.inst        83200                       # Number of instructions bytes read from this memory
system.mem_ctrls.bytes_inst_read::total        331200                       # Number of instructions bytes read from this memory
system.mem_ctrls.bytes_written::writebacks     86590336                       # Number of bytes written to this memory
system.mem_ctrls.bytes_written::total        86590336                       # Number of bytes written to this memory
system.mem_ctrls.num_reads::cpu0.inst            1295                       # Number of read requests responded to by this memory
system.mem_ctrls.num_reads::cpu0.data          372321                       # Number of read requests responded to by this memory
system.mem_ctrls.num_reads::cpu1.inst            1291                       # Number of read requests responded to by this memory
system.mem_ctrls.num_reads::cpu1.data          369744                       # Number of read requests responded to by this memory
system.mem_ctrls.num_reads::cpu2.inst            1289                       # Number of read requests responded to by this memory
system.mem_ctrls.num_reads::cpu2.data          371883                       # Number of read requests responded to by this memory
system.mem_ctrls.num_reads::cpu3.inst            1300                       # Number of read requests responded to by this memory
system.mem_ctrls.num_reads::cpu3.data          370925                       # Number of read requests responded to by this memory
system.mem_ctrls.num_reads::total             1490048                       # Number of read requests responded to by this memory
system.mem_ctrls.num_writes::writebacks       1352974                       # Number of write requests responded to by this memory
system.mem_ctrls.num_writes::total            1352974                       # Number of write requests responded to by this memory
system.mem_ctrls.bw_read::cpu0.inst           2208503                       # Total read bandwidth from this memory (bytes/s)
system.mem_ctrls.bw_read::cpu0.data         634959222                       # Total read bandwidth from this memory (bytes/s)
system.mem_ctrls.bw_read::cpu1.inst           2201682                       # Total read bandwidth from this memory (bytes/s)
system.mem_ctrls.bw_read::cpu1.data         630564385                       # Total read bandwidth from this memory (bytes/s)
system.mem_ctrls.bw_read::cpu2.inst           2198271                       # Total read bandwidth from this memory (bytes/s)
system.mem_ctrls.bw_read::cpu2.data         634212253                       # Total read bandwidth from this memory (bytes/s)
system.mem_ctrls.bw_read::cpu3.inst           2217030                       # Total read bandwidth from this memory (bytes/s)
system.mem_ctrls.bw_read::cpu3.data         632578472                       # Total read bandwidth from this memory (bytes/s)
system.mem_ctrls.bw_read::total            2541139818                       # Total read bandwidth from this memory (bytes/s)
system.mem_ctrls.bw_inst_read::cpu0.inst      2208503                       # Instruction read bandwidth from this memory (bytes/s)
system.mem_ctrls.bw_inst_read::cpu1.inst      2201682                       # Instruction read bandwidth from this memory (bytes/s)
system.mem_ctrls.bw_inst_read::cpu2.inst      2198271                       # Instruction read bandwidth from this memory (bytes/s)
system.mem_ctrls.bw_inst_read::cpu3.inst      2217030                       # Instruction read bandwidth from this memory (bytes/s)
system.mem_ctrls.bw_inst_read::total          8825487                       # Instruction read bandwidth from this memory (bytes/s)
system.mem_ctrls.bw_write::writebacks      2307372718                       # Write bandwidth from this memory (bytes/s)
system.mem_ctrls.bw_write::total           2307372718                       # Write bandwidth from this memory (bytes/s)
system.mem_ctrls.bw_total::writebacks      2307372718                       # Total bandwidth to/from this memory (bytes/s)
system.mem_ctrls.bw_total::cpu0.inst          2208503                       # Total bandwidth to/from this memory (bytes/s)
system.mem_ctrls.bw_total::cpu0.data        634959222                       # Total bandwidth to/from this memory (bytes/s)
system.mem_ctrls.bw_total::cpu1.inst          2201682                       # Total bandwidth to/from this memory (bytes/s)
system.mem_ctrls.bw_total::cpu1.data        630564385                       # Total bandwidth to/from this memory (bytes/s)
system.mem_ctrls.bw_total::cpu2.inst          2198271                       # Total bandwidth to/from this memory (bytes/s)
system.mem_ctrls.bw_total::cpu2.data        634212253                       # Total bandwidth to/from this memory (bytes/s)
system.mem_ctrls.bw_total::cpu3.inst          2217030                       # Total bandwidth to/from this memory (bytes/s)
system.mem_ctrls.bw_total::cpu3.data        632578472                       # Total bandwidth to/from this memory (bytes/s)
system.mem_ctrls.bw_total::total           4848512537                       # Total bandwidth to/from this memory (bytes/s)
system.pwrStateResidencyTicks::UNDEFINED  37527676092                       # Cumulative time (in ticks) in various power states
system.cpu0.branchPred.lookups                2481064                       # Number of BP lookups
system.cpu0.branchPred.condPredicted          2481064                       # Number of conditional branches predicted
system.cpu0.branchPred.condIncorrect            41599                       # Number of conditional branches incorrect
system.cpu0.branchPred.BTBLookups             2466972                       # Number of BTB lookups
system.cpu0.branchPred.BTBHits                      0                       # Number of BTB hits
system.cpu0.branchPred.BTBCorrect                   0                       # Number of correct BTB predictions (this stat may not work properly.
system.cpu0.branchPred.BTBHitPct             0.000000                       # BTB Hit Percentage
system.cpu0.branchPred.usedRAS                   8961                       # Number of times the RAS was used to get a target.
system.cpu0.branchPred.RASInCorrect              1693                       # Number of incorrect RAS predictions.
system.cpu0.branchPred.indirectLookups        2466972                       # Number of indirect predictor lookups.
system.cpu0.branchPred.indirectHits           2381244                       # Number of indirect target hits.
system.cpu0.branchPred.indirectMisses           85728                       # Number of indirect misses.
system.cpu0.branchPredindirectMispredicted         6493                       # Number of mispredicted indirect branches.
system.cpu_voltage_domain.voltage                   1                       # Voltage in Volts
system.cpu_clk_domain.clock                       333                       # Clock period in ticks
system.cpu0.dtb.walker.pwrStateResidencyTicks::UNDEFINED  37527676092                       # Cumulative time (in ticks) in various power states
system.cpu0.dtb.rdAccesses                     217886                       # TLB accesses on read requests
system.cpu0.dtb.wrAccesses                    3165679                       # TLB accesses on write requests
system.cpu0.dtb.rdMisses                         1024                       # TLB misses on read requests
system.cpu0.dtb.wrMisses                         6305                       # TLB misses on write requests
system.cpu0.apic_clk_domain.clock                5328                       # Clock period in ticks
system.cpu0.interrupts.pwrStateResidencyTicks::UNDEFINED  37527676092                       # Cumulative time (in ticks) in various power states
system.cpu0.itb.walker.pwrStateResidencyTicks::UNDEFINED  37527676092                       # Cumulative time (in ticks) in various power states
system.cpu0.itb.rdAccesses                          0                       # TLB accesses on read requests
system.cpu0.itb.wrAccesses                    1225852                       # TLB accesses on write requests
system.cpu0.itb.rdMisses                            0                       # TLB misses on read requests
system.cpu0.itb.wrMisses                          330                       # TLB misses on write requests
system.cpu0.workload.numSyscalls                   38                       # Number of system calls
system.cpu0.pwrStateResidencyTicks::ON    37527676092                       # Cumulative time (in ticks) in various power states
system.cpu0.numCycles                       112695725                       # number of cpu cycles simulated
system.cpu0.numWorkItemsStarted                     0                       # number of work items this cpu started
system.cpu0.numWorkItemsCompleted                   0                       # number of work items this cpu completed
system.cpu0.fetch.icacheStallCycles           1281246                       # Number of cycles fetch is stalled on an Icache miss
system.cpu0.fetch.Insts                      11168355                       # Number of instructions fetch has processed
system.cpu0.fetch.Branches                    2481064                       # Number of branches that fetch encountered
system.cpu0.fetch.predictedBranches           2390205                       # Number of branches that fetch has predicted taken
system.cpu0.fetch.Cycles                    111266213                       # Number of cycles fetch has run and was not squashing or blocked
system.cpu0.fetch.SquashCycles                  83782                       # Number of cycles fetch has spent squashing
system.cpu0.fetch.TlbCycles                         2                       # Number of cycles fetch has spent waiting for tlb
system.cpu0.fetch.MiscStallCycles                 754                       # Number of cycles fetch has spent waiting on interrupts, or bad addresses, or out of MSHRs
system.cpu0.fetch.PendingTrapStallCycles         1374                       # Number of stall cycles due to pending traps
system.cpu0.fetch.PendingQuiesceStallCycles            7                       # Number of stall cycles due to pending quiesce instructions
system.cpu0.fetch.IcacheWaitRetryStallCycles          227                       # Number of stall cycles due to full MSHR
system.cpu0.fetch.CacheLines                  1225602                       # Number of cache lines fetched
system.cpu0.fetch.IcacheSquashes                 6032                       # Number of outstanding Icache misses that were squashed
system.cpu0.fetch.rateDist::samples         112591714                       # Number of instructions fetched each cycle (Total)
system.cpu0.fetch.rateDist::mean             0.194861                       # Number of instructions fetched each cycle (Total)
system.cpu0.fetch.rateDist::stdev            1.164264                       # Number of instructions fetched each cycle (Total)
system.cpu0.fetch.rateDist::underflows              0      0.00%      0.00% # Number of instructions fetched each cycle (Total)
system.cpu0.fetch.rateDist::0               109210477     97.00%     97.00% # Number of instructions fetched each cycle (Total)
system.cpu0.fetch.rateDist::1                   34187      0.03%     97.03% # Number of instructions fetched each cycle (Total)
system.cpu0.fetch.rateDist::2                   81533      0.07%     97.10% # Number of instructions fetched each cycle (Total)
system.cpu0.fetch.rateDist::3                  234356      0.21%     97.31% # Number of instructions fetched each cycle (Total)
system.cpu0.fetch.rateDist::4                  595904      0.53%     97.84% # Number of instructions fetched each cycle (Total)
system.cpu0.fetch.rateDist::5                  219777      0.20%     98.03% # Number of instructions fetched each cycle (Total)
system.cpu0.fetch.rateDist::6                   54548      0.05%     98.08% # Number of instructions fetched each cycle (Total)
system.cpu0.fetch.rateDist::7                   57819      0.05%     98.13% # Number of instructions fetched each cycle (Total)
system.cpu0.fetch.rateDist::8                 2103113      1.87%    100.00% # Number of instructions fetched each cycle (Total)
system.cpu0.fetch.rateDist::overflows               0      0.00%    100.00% # Number of instructions fetched each cycle (Total)
system.cpu0.fetch.rateDist::min_value               0                       # Number of instructions fetched each cycle (Total)
system.cpu0.fetch.rateDist::max_value               8                       # Number of instructions fetched each cycle (Total)
system.cpu0.fetch.rateDist::total           112591714                       # Number of instructions fetched each cycle (Total)
system.cpu0.fetch.branchRate                 0.022016                       # Number of branch fetches per cycle
system.cpu0.fetch.rate                       0.099102                       # Number of inst fetches per cycle
system.cpu0.decode.IdleCycles                  935446                       # Number of cycles decode is idle
system.cpu0.decode.BlockedCycles            108925802                       # Number of cycles decode is blocked
system.cpu0.decode.RunCycles                  1009717                       # Number of cycles decode is running
system.cpu0.decode.UnblockCycles              1678858                       # Number of cycles decode is unblocking
system.cpu0.decode.SquashCycles                 41891                       # Number of cycles decode is squashing
system.cpu0.decode.DecodedInsts              20798869                       # Number of instructions handled by decode
system.cpu0.rename.SquashCycles                 41891                       # Number of cycles rename is squashing
system.cpu0.rename.IdleCycles                 1517521                       # Number of cycles rename is idle
system.cpu0.rename.BlockCycles               18296086                       # Number of cycles rename is blocking
system.cpu0.rename.serializeStallCycles          6123                       # count of cycles rename stalled for serializing inst
system.cpu0.rename.RunCycles                  2095823                       # Number of cycles rename is running
system.cpu0.rename.UnblockCycles             90634270                       # Number of cycles rename is unblocking
system.cpu0.rename.RenamedInsts              20437650                       # Number of instructions processed by rename
system.cpu0.rename.ROBFullEvents                  336                       # Number of times rename has blocked due to ROB full
system.cpu0.rename.IQFullEvents                  1785                       # Number of times rename has blocked due to IQ full
system.cpu0.rename.LQFullEvents                   242                       # Number of times rename has blocked due to LQ full
system.cpu0.rename.SQFullEvents              90213391                       # Number of times rename has blocked due to SQ full
system.cpu0.rename.RenamedOperands           24029120                       # Number of destination operands rename has renamed
system.cpu0.rename.RenameLookups             43842616                       # Number of register rename lookups that rename has made
system.cpu0.rename.int_rename_lookups        23911107                       # Number of integer rename lookups
system.cpu0.rename.fp_rename_lookups           255878                       # Number of floating rename lookups
system.cpu0.rename.CommittedMaps             23081156                       # Number of HB maps that are committed
system.cpu0.rename.UndoneMaps                  947945                       # Number of HB maps that are undone due to squashing
system.cpu0.rename.serializingInsts               236                       # count of serializing insts renamed
system.cpu0.rename.tempSerializingInsts           251                       # count of temporary serializing insts renamed
system.cpu0.rename.skidInsts                 10610569                       # count of insts added to the skid buffer
system.cpu0.memDep0.insertedLoads              230203                       # Number of loads inserted to the mem dependence unit.
system.cpu0.memDep0.insertedStores            3181692                       # Number of stores inserted to the mem dependence unit.
system.cpu0.memDep0.conflictingLoads             6020                       # Number of conflicting loads.
system.cpu0.memDep0.conflictingStores            3263                       # Number of conflicting stores.
system.cpu0.iq.iqInstsAdded                  20217477                       # Number of instructions added to the IQ (excludes non-spec)
system.cpu0.iq.iqNonSpecInstsAdded               1220                       # Number of non-speculative instructions added to the IQ
system.cpu0.iq.iqInstsIssued                 20104048                       # Number of instructions issued
system.cpu0.iq.iqSquashedInstsIssued             3374                       # Number of squashed instructions issued
system.cpu0.iq.iqSquashedInstsExamined         597563                       # Number of squashed instructions iterated over during squash; mainly for profiling
system.cpu0.iq.iqSquashedOperandsExamined       543627                       # Number of squashed operands that are examined and possibly removed from graph
system.cpu0.iq.iqSquashedNonSpecRemoved           930                       # Number of squashed non-spec instructions that were removed
system.cpu0.iq.issued_per_cycle::samples    112591714                       # Number of insts issued each cycle
system.cpu0.iq.issued_per_cycle::mean        0.178557                       # Number of insts issued each cycle
system.cpu0.iq.issued_per_cycle::stdev       0.826169                       # Number of insts issued each cycle
system.cpu0.iq.issued_per_cycle::underflows            0      0.00%      0.00% # Number of insts issued each cycle
system.cpu0.iq.issued_per_cycle::0          106186007     94.31%     94.31% # Number of insts issued each cycle
system.cpu0.iq.issued_per_cycle::1            1236130      1.10%     95.41% # Number of insts issued each cycle
system.cpu0.iq.issued_per_cycle::2            1751380      1.56%     96.96% # Number of insts issued each cycle
system.cpu0.iq.issued_per_cycle::3             678370      0.60%     97.57% # Number of insts issued each cycle
system.cpu0.iq.issued_per_cycle::4             706709      0.63%     98.19% # Number of insts issued each cycle
system.cpu0.iq.issued_per_cycle::5            1811540      1.61%     99.80% # Number of insts issued each cycle
system.cpu0.iq.issued_per_cycle::6             111283      0.10%     99.90% # Number of insts issued each cycle
system.cpu0.iq.issued_per_cycle::7             104546      0.09%     99.99% # Number of insts issued each cycle
system.cpu0.iq.issued_per_cycle::8               5749      0.01%    100.00% # Number of insts issued each cycle
system.cpu0.iq.issued_per_cycle::overflows            0      0.00%    100.00% # Number of insts issued each cycle
system.cpu0.iq.issued_per_cycle::min_value            0                       # Number of insts issued each cycle
system.cpu0.iq.issued_per_cycle::max_value            8                       # Number of insts issued each cycle
system.cpu0.iq.issued_per_cycle::total      112591714                       # Number of insts issued each cycle
system.cpu0.iq.fu_full::No_OpClass                  0      0.00%      0.00% # attempts to use FU when none available
system.cpu0.iq.fu_full::IntAlu                  25166     89.47%     89.47% # attempts to use FU when none available
system.cpu0.iq.fu_full::IntMult                     0      0.00%     89.47% # attempts to use FU when none available
system.cpu0.iq.fu_full::IntDiv                      0      0.00%     89.47% # attempts to use FU when none available
system.cpu0.iq.fu_full::FloatAdd                   37      0.13%     89.60% # attempts to use FU when none available
system.cpu0.iq.fu_full::FloatCmp                    0      0.00%     89.60% # attempts to use FU when none available
system.cpu0.iq.fu_full::FloatCvt                    0      0.00%     89.60% # attempts to use FU when none available
system.cpu0.iq.fu_full::FloatMult                   0      0.00%     89.60% # attempts to use FU when none available
system.cpu0.iq.fu_full::FloatMultAcc                0      0.00%     89.60% # attempts to use FU when none available
system.cpu0.iq.fu_full::FloatDiv                    0      0.00%     89.60% # attempts to use FU when none available
system.cpu0.iq.fu_full::FloatMisc                   0      0.00%     89.60% # attempts to use FU when none available
system.cpu0.iq.fu_full::FloatSqrt                   0      0.00%     89.60% # attempts to use FU when none available
system.cpu0.iq.fu_full::SimdAdd                     0      0.00%     89.60% # attempts to use FU when none available
system.cpu0.iq.fu_full::SimdAddAcc                  0      0.00%     89.60% # attempts to use FU when none available
system.cpu0.iq.fu_full::SimdAlu                     0      0.00%     89.60% # attempts to use FU when none available
system.cpu0.iq.fu_full::SimdCmp                     0      0.00%     89.60% # attempts to use FU when none available
system.cpu0.iq.fu_full::SimdCvt                     0      0.00%     89.60% # attempts to use FU when none available
system.cpu0.iq.fu_full::SimdMisc                    0      0.00%     89.60% # attempts to use FU when none available
system.cpu0.iq.fu_full::SimdMult                    0      0.00%     89.60% # attempts to use FU when none available
system.cpu0.iq.fu_full::SimdMultAcc                 0      0.00%     89.60% # attempts to use FU when none available
system.cpu0.iq.fu_full::SimdShift                   0      0.00%     89.60% # attempts to use FU when none available
system.cpu0.iq.fu_full::SimdShiftAcc                0      0.00%     89.60% # attempts to use FU when none available
system.cpu0.iq.fu_full::SimdSqrt                    0      0.00%     89.60% # attempts to use FU when none available
system.cpu0.iq.fu_full::SimdFloatAdd                0      0.00%     89.60% # attempts to use FU when none available
system.cpu0.iq.fu_full::SimdFloatAlu                0      0.00%     89.60% # attempts to use FU when none available
system.cpu0.iq.fu_full::SimdFloatCmp                0      0.00%     89.60% # attempts to use FU when none available
system.cpu0.iq.fu_full::SimdFloatCvt                0      0.00%     89.60% # attempts to use FU when none available
system.cpu0.iq.fu_full::SimdFloatDiv                0      0.00%     89.60% # attempts to use FU when none available
system.cpu0.iq.fu_full::SimdFloatMisc               0      0.00%     89.60% # attempts to use FU when none available
system.cpu0.iq.fu_full::SimdFloatMult               0      0.00%     89.60% # attempts to use FU when none available
system.cpu0.iq.fu_full::SimdFloatMultAcc            0      0.00%     89.60% # attempts to use FU when none available
system.cpu0.iq.fu_full::SimdFloatSqrt               0      0.00%     89.60% # attempts to use FU when none available
system.cpu0.iq.fu_full::MemRead                  1059      3.76%     93.37% # attempts to use FU when none available
system.cpu0.iq.fu_full::MemWrite                  984      3.50%     96.86% # attempts to use FU when none available
system.cpu0.iq.fu_full::FloatMemRead               32      0.11%     96.98% # attempts to use FU when none available
system.cpu0.iq.fu_full::FloatMemWrite             850      3.02%    100.00% # attempts to use FU when none available
system.cpu0.iq.fu_full::IprAccess                   0      0.00%    100.00% # attempts to use FU when none available
system.cpu0.iq.fu_full::InstPrefetch                0      0.00%    100.00% # attempts to use FU when none available
system.cpu0.iq.FU_type_0::No_OpClass            34347      0.17%      0.17% # Type of FU issued
system.cpu0.iq.FU_type_0::IntAlu             16670764     82.92%     83.09% # Type of FU issued
system.cpu0.iq.FU_type_0::IntMult                 213      0.00%     83.09% # Type of FU issued
system.cpu0.iq.FU_type_0::IntDiv                 2051      0.01%     83.10% # Type of FU issued
system.cpu0.iq.FU_type_0::FloatAdd               1567      0.01%     83.11% # Type of FU issued
system.cpu0.iq.FU_type_0::FloatCmp                  0      0.00%     83.11% # Type of FU issued
system.cpu0.iq.FU_type_0::FloatCvt                  0      0.00%     83.11% # Type of FU issued
system.cpu0.iq.FU_type_0::FloatMult                 0      0.00%     83.11% # Type of FU issued
system.cpu0.iq.FU_type_0::FloatMultAcc              0      0.00%     83.11% # Type of FU issued
system.cpu0.iq.FU_type_0::FloatDiv                  0      0.00%     83.11% # Type of FU issued
system.cpu0.iq.FU_type_0::FloatMisc                 0      0.00%     83.11% # Type of FU issued
system.cpu0.iq.FU_type_0::FloatSqrt                 0      0.00%     83.11% # Type of FU issued
system.cpu0.iq.FU_type_0::SimdAdd                   0      0.00%     83.11% # Type of FU issued
system.cpu0.iq.FU_type_0::SimdAddAcc                0      0.00%     83.11% # Type of FU issued
system.cpu0.iq.FU_type_0::SimdAlu                   0      0.00%     83.11% # Type of FU issued
system.cpu0.iq.FU_type_0::SimdCmp                   0      0.00%     83.11% # Type of FU issued
system.cpu0.iq.FU_type_0::SimdCvt                   0      0.00%     83.11% # Type of FU issued
system.cpu0.iq.FU_type_0::SimdMisc                  0      0.00%     83.11% # Type of FU issued
system.cpu0.iq.FU_type_0::SimdMult                  0      0.00%     83.11% # Type of FU issued
system.cpu0.iq.FU_type_0::SimdMultAcc               0      0.00%     83.11% # Type of FU issued
system.cpu0.iq.FU_type_0::SimdShift                 0      0.00%     83.11% # Type of FU issued
system.cpu0.iq.FU_type_0::SimdShiftAcc              0      0.00%     83.11% # Type of FU issued
system.cpu0.iq.FU_type_0::SimdSqrt                  0      0.00%     83.11% # Type of FU issued
system.cpu0.iq.FU_type_0::SimdFloatAdd              0      0.00%     83.11% # Type of FU issued
system.cpu0.iq.FU_type_0::SimdFloatAlu              0      0.00%     83.11% # Type of FU issued
system.cpu0.iq.FU_type_0::SimdFloatCmp              0      0.00%     83.11% # Type of FU issued
system.cpu0.iq.FU_type_0::SimdFloatCvt              0      0.00%     83.11% # Type of FU issued
system.cpu0.iq.FU_type_0::SimdFloatDiv              0      0.00%     83.11% # Type of FU issued
system.cpu0.iq.FU_type_0::SimdFloatMisc             0      0.00%     83.11% # Type of FU issued
system.cpu0.iq.FU_type_0::SimdFloatMult             0      0.00%     83.11% # Type of FU issued
system.cpu0.iq.FU_type_0::SimdFloatMultAcc            0      0.00%     83.11% # Type of FU issued
system.cpu0.iq.FU_type_0::SimdFloatSqrt             0      0.00%     83.11% # Type of FU issued
system.cpu0.iq.FU_type_0::MemRead               78823      0.39%     83.50% # Type of FU issued
system.cpu0.iq.FU_type_0::MemWrite            2922015     14.53%     98.04% # Type of FU issued
system.cpu0.iq.FU_type_0::FloatMemRead         143637      0.71%     98.75% # Type of FU issued
system.cpu0.iq.FU_type_0::FloatMemWrite        250631      1.25%    100.00% # Type of FU issued
system.cpu0.iq.FU_type_0::IprAccess                 0      0.00%    100.00% # Type of FU issued
system.cpu0.iq.FU_type_0::InstPrefetch              0      0.00%    100.00% # Type of FU issued
system.cpu0.iq.FU_type_0::total              20104048                       # Type of FU issued
system.cpu0.iq.rate                          0.178392                       # Inst issue rate
system.cpu0.iq.fu_busy_cnt                      28128                       # FU busy when requested
system.cpu0.iq.fu_busy_rate                  0.001399                       # FU busy rate (busy events/executed inst)
system.cpu0.iq.int_inst_queue_reads         152038176                       # Number of integer instruction queue reads
system.cpu0.iq.int_inst_queue_writes         20416364                       # Number of integer instruction queue writes
system.cpu0.iq.int_inst_queue_wakeup_accesses     19641144                       # Number of integer instruction queue wakeup accesses
system.cpu0.iq.fp_inst_queue_reads             793135                       # Number of floating instruction queue reads
system.cpu0.iq.fp_inst_queue_writes            400022                       # Number of floating instruction queue writes
system.cpu0.iq.fp_inst_queue_wakeup_accesses       394360                       # Number of floating instruction queue wakeup accesses
system.cpu0.iq.vec_inst_queue_reads                 0                       # Number of vector instruction queue reads
system.cpu0.iq.vec_inst_queue_writes                0                       # Number of vector instruction queue writes
system.cpu0.iq.vec_inst_queue_wakeup_accesses            0                       # Number of vector instruction queue wakeup accesses
system.cpu0.iq.int_alu_accesses              19700822                       # Number of integer alu accesses
system.cpu0.iq.fp_alu_accesses                 397007                       # Number of floating point alu accesses
system.cpu0.iq.vec_alu_accesses                     0                       # Number of vector alu accesses
system.cpu0.iew.lsq.thread0.forwLoads            8009                       # Number of loads that had data forwarded from stores
system.cpu0.iew.lsq.thread0.invAddrLoads            0                       # Number of loads ignored due to an invalid address
system.cpu0.iew.lsq.thread0.squashedLoads        29858                       # Number of loads squashed
system.cpu0.iew.lsq.thread0.ignoredResponses          157                       # Number of memory responses ignored because the instruction is squashed
system.cpu0.iew.lsq.thread0.memOrderViolation          129                       # Number of memory ordering violations
system.cpu0.iew.lsq.thread0.squashedStores        69087                       # Number of stores squashed
system.cpu0.iew.lsq.thread0.invAddrSwpfs            0                       # Number of software prefetches ignored due to an invalid address
system.cpu0.iew.lsq.thread0.blockedLoads            0                       # Number of blocked loads due to partial load-store forwarding
system.cpu0.iew.lsq.thread0.rescheduledLoads           16                       # Number of loads that were rescheduled
system.cpu0.iew.lsq.thread0.cacheBlocked          663                       # Number of times an access to memory failed due to the cache being blocked
system.cpu0.iew.iewIdleCycles                       0                       # Number of cycles IEW is idle
system.cpu0.iew.iewSquashCycles                 41891                       # Number of cycles IEW is squashing
system.cpu0.iew.iewBlockCycles                  59976                       # Number of cycles IEW is blocking
system.cpu0.iew.iewUnblockCycles             18230016                       # Number of cycles IEW is unblocking
system.cpu0.iew.iewDispatchedInsts           20218697                       # Number of instructions dispatched to IQ
system.cpu0.iew.iewDispSquashedInsts              955                       # Number of squashed instructions skipped by dispatch
system.cpu0.iew.iewDispLoadInsts               230203                       # Number of dispatched load instructions
system.cpu0.iew.iewDispStoreInsts             3181692                       # Number of dispatched store instructions
system.cpu0.iew.iewDispNonSpecInsts               553                       # Number of dispatched non-speculative instructions
system.cpu0.iew.iewIQFullEvents                   106                       # Number of times the IQ has become full, causing a stall
system.cpu0.iew.iewLSQFullEvents             18223972                       # Number of times the LSQ has become full, causing a stall
system.cpu0.iew.memOrderViolationEvents           129                       # Number of memory order violations
system.cpu0.iew.predictedTakenIncorrect         55371                       # Number of branches that were predicted taken incorrectly
system.cpu0.iew.predictedNotTakenIncorrect        10173                       # Number of branches that were predicted not taken incorrectly
system.cpu0.iew.branchMispredicts               65544                       # Number of branch mispredicts detected at execute
system.cpu0.iew.iewExecutedInsts             20046417                       # Number of executed instructions
system.cpu0.iew.iewExecLoadInsts               217832                       # Number of load instructions executed
system.cpu0.iew.iewExecSquashedInsts            57630                       # Number of squashed instructions skipped in execute
system.cpu0.iew.exec_swp                            0                       # number of swp insts executed
system.cpu0.iew.exec_nop                            0                       # number of nop insts executed
system.cpu0.iew.exec_refs                     3383485                       # number of memory reference insts executed
system.cpu0.iew.exec_branches                 2237731                       # Number of branches executed
system.cpu0.iew.exec_stores                   3165653                       # Number of stores executed
system.cpu0.iew.exec_rate                    0.177881                       # Inst execution rate
system.cpu0.iew.wb_sent                      20039954                       # cumulative count of insts sent to commit
system.cpu0.iew.wb_count                     20035504                       # cumulative count of insts written-back
system.cpu0.iew.wb_producers                 13284053                       # num instructions producing a value
system.cpu0.iew.wb_consumers                 18999828                       # num instructions consuming a value
system.cpu0.iew.wb_rate                      0.177784                       # insts written-back per cycle
system.cpu0.iew.wb_fanout                    0.699167                       # average fanout of values written-back
system.cpu0.commit.commitSquashedInsts         597655                       # The number of squashed insts skipped by commit
system.cpu0.commit.commitNonSpecStalls            290                       # The number of times commit has been forced to stall to communicate backwards
system.cpu0.commit.branchMispredicts            41791                       # The number of times a branch was mispredicted
system.cpu0.commit.committed_per_cycle::samples    112495740                       # Number of insts commited each cycle
system.cpu0.commit.committed_per_cycle::mean     0.174417                       # Number of insts commited each cycle
system.cpu0.commit.committed_per_cycle::stdev     0.803872                       # Number of insts commited each cycle
system.cpu0.commit.committed_per_cycle::underflows            0      0.00%      0.00% # Number of insts commited each cycle
system.cpu0.commit.committed_per_cycle::0    106230829     94.43%     94.43% # Number of insts commited each cycle
system.cpu0.commit.committed_per_cycle::1       913421      0.81%     95.24% # Number of insts commited each cycle
system.cpu0.commit.committed_per_cycle::2      1314390      1.17%     96.41% # Number of insts commited each cycle
system.cpu0.commit.committed_per_cycle::3      2119996      1.88%     98.30% # Number of insts commited each cycle
system.cpu0.commit.committed_per_cycle::4       323023      0.29%     98.58% # Number of insts commited each cycle
system.cpu0.commit.committed_per_cycle::5      1417933      1.26%     99.84% # Number of insts commited each cycle
system.cpu0.commit.committed_per_cycle::6        28557      0.03%     99.87% # Number of insts commited each cycle
system.cpu0.commit.committed_per_cycle::7        14895      0.01%     99.88% # Number of insts commited each cycle
system.cpu0.commit.committed_per_cycle::8       132696      0.12%    100.00% # Number of insts commited each cycle
system.cpu0.commit.committed_per_cycle::overflows            0      0.00%    100.00% # Number of insts commited each cycle
system.cpu0.commit.committed_per_cycle::min_value            0                       # Number of insts commited each cycle
system.cpu0.commit.committed_per_cycle::max_value            8                       # Number of insts commited each cycle
system.cpu0.commit.committed_per_cycle::total    112495740                       # Number of insts commited each cycle
system.cpu0.commit.committedInsts            10000000                       # Number of instructions committed
system.cpu0.commit.committedOps              19621121                       # Number of ops (including micro ops) committed
system.cpu0.commit.swp_count                        0                       # Number of s/w prefetches committed
system.cpu0.commit.refs                       3312945                       # Number of memory references committed
system.cpu0.commit.loads                       200343                       # Number of loads committed
system.cpu0.commit.membars                        120                       # Number of memory barriers committed
system.cpu0.commit.branches                   2206003                       # Number of branches committed
system.cpu0.commit.vec_insts                        0                       # Number of committed Vector instructions.
system.cpu0.commit.fp_insts                    393865                       # Number of committed floating point instructions.
system.cpu0.commit.int_insts                 19585289                       # Number of committed integer instructions.
system.cpu0.commit.function_calls                4593                       # Number of function calls committed.
system.cpu0.commit.op_class_0::No_OpClass        30366      0.15%      0.15% # Class of committed instruction
system.cpu0.commit.op_class_0::IntAlu        16274214     82.94%     83.10% # Class of committed instruction
system.cpu0.commit.op_class_0::IntMult            170      0.00%     83.10% # Class of committed instruction
system.cpu0.commit.op_class_0::IntDiv            1905      0.01%     83.11% # Class of committed instruction
system.cpu0.commit.op_class_0::FloatAdd          1521      0.01%     83.12% # Class of committed instruction
system.cpu0.commit.op_class_0::FloatCmp             0      0.00%     83.12% # Class of committed instruction
system.cpu0.commit.op_class_0::FloatCvt             0      0.00%     83.12% # Class of committed instruction
system.cpu0.commit.op_class_0::FloatMult            0      0.00%     83.12% # Class of committed instruction
system.cpu0.commit.op_class_0::FloatMultAcc            0      0.00%     83.12% # Class of committed instruction
system.cpu0.commit.op_class_0::FloatDiv             0      0.00%     83.12% # Class of committed instruction
system.cpu0.commit.op_class_0::FloatMisc            0      0.00%     83.12% # Class of committed instruction
system.cpu0.commit.op_class_0::FloatSqrt            0      0.00%     83.12% # Class of committed instruction
system.cpu0.commit.op_class_0::SimdAdd              0      0.00%     83.12% # Class of committed instruction
system.cpu0.commit.op_class_0::SimdAddAcc            0      0.00%     83.12% # Class of committed instruction
system.cpu0.commit.op_class_0::SimdAlu              0      0.00%     83.12% # Class of committed instruction
system.cpu0.commit.op_class_0::SimdCmp              0      0.00%     83.12% # Class of committed instruction
system.cpu0.commit.op_class_0::SimdCvt              0      0.00%     83.12% # Class of committed instruction
system.cpu0.commit.op_class_0::SimdMisc             0      0.00%     83.12% # Class of committed instruction
system.cpu0.commit.op_class_0::SimdMult             0      0.00%     83.12% # Class of committed instruction
system.cpu0.commit.op_class_0::SimdMultAcc            0      0.00%     83.12% # Class of committed instruction
system.cpu0.commit.op_class_0::SimdShift            0      0.00%     83.12% # Class of committed instruction
system.cpu0.commit.op_class_0::SimdShiftAcc            0      0.00%     83.12% # Class of committed instruction
system.cpu0.commit.op_class_0::SimdSqrt             0      0.00%     83.12% # Class of committed instruction
system.cpu0.commit.op_class_0::SimdFloatAdd            0      0.00%     83.12% # Class of committed instruction
system.cpu0.commit.op_class_0::SimdFloatAlu            0      0.00%     83.12% # Class of committed instruction
system.cpu0.commit.op_class_0::SimdFloatCmp            0      0.00%     83.12% # Class of committed instruction
system.cpu0.commit.op_class_0::SimdFloatCvt            0      0.00%     83.12% # Class of committed instruction
system.cpu0.commit.op_class_0::SimdFloatDiv            0      0.00%     83.12% # Class of committed instruction
system.cpu0.commit.op_class_0::SimdFloatMisc            0      0.00%     83.12% # Class of committed instruction
system.cpu0.commit.op_class_0::SimdFloatMult            0      0.00%     83.12% # Class of committed instruction
system.cpu0.commit.op_class_0::SimdFloatMultAcc            0      0.00%     83.12% # Class of committed instruction
system.cpu0.commit.op_class_0::SimdFloatSqrt            0      0.00%     83.12% # Class of committed instruction
system.cpu0.commit.op_class_0::MemRead          58464      0.30%     83.41% # Class of committed instruction
system.cpu0.commit.op_class_0::MemWrite       2862367     14.59%     98.00% # Class of committed instruction
system.cpu0.commit.op_class_0::FloatMemRead       141879      0.72%     98.72% # Class of committed instruction
system.cpu0.commit.op_class_0::FloatMemWrite       250235      1.28%    100.00% # Class of committed instruction
system.cpu0.commit.op_class_0::IprAccess            0      0.00%    100.00% # Class of committed instruction
system.cpu0.commit.op_class_0::InstPrefetch            0      0.00%    100.00% # Class of committed instruction
system.cpu0.commit.op_class_0::total         19621121                       # Class of committed instruction
system.cpu0.commit.bw_lim_events               132696                       # number cycles where commit BW limit reached
system.cpu0.rob.rob_reads                   132581820                       # The number of ROB reads
system.cpu0.rob.rob_writes                   40534263                       # The number of ROB writes
system.cpu0.timesIdled                            697                       # Number of times that the entire CPU went into an idle state and unscheduled itself
system.cpu0.idleCycles                         104011                       # Total number of cycles that the CPU has spent unscheduled due to idling
system.cpu0.committedInsts                   10000000                       # Number of Instructions Simulated
system.cpu0.committedOps                     19621121                       # Number of Ops (including micro ops) Simulated
system.cpu0.cpi                             11.269573                       # CPI: Cycles Per Instruction
system.cpu0.cpi_total                       11.269573                       # CPI: Total CPI of All Threads
system.cpu0.ipc                              0.088735                       # IPC: Instructions Per Cycle
system.cpu0.ipc_total                        0.088735                       # IPC: Total IPC of All Threads
system.cpu0.int_regfile_reads                23331273                       # number of integer regfile reads
system.cpu0.int_regfile_writes               14459411                       # number of integer regfile writes
system.cpu0.fp_regfile_reads                   253924                       # number of floating regfile reads
system.cpu0.fp_regfile_writes                  143830                       # number of floating regfile writes
system.cpu0.cc_regfile_reads                 11197463                       # number of cc regfile reads
system.cpu0.cc_regfile_writes                 8921217                       # number of cc regfile writes
system.cpu0.misc_regfile_reads                8025225                       # number of misc regfile reads
system.cpu0.misc_regfile_writes                    70                       # number of misc regfile writes
system.cpu0.dcache.tags.pwrStateResidencyTicks::UNDEFINED  37527676092                       # Cumulative time (in ticks) in various power states
system.cpu0.dcache.tags.replacements           386218                       # number of replacements
system.cpu0.dcache.tags.tagsinuse          511.563564                       # Cycle average of tags in use
system.cpu0.dcache.tags.total_refs            2933439                       # Total number of references to valid blocks.
system.cpu0.dcache.tags.sampled_refs           386730                       # Sample count of references to valid blocks.
system.cpu0.dcache.tags.avg_refs             7.585238                       # Average number of references to valid blocks.
system.cpu0.dcache.tags.warmup_cycle           145188                       # Cycle when the warmup percentage was hit.
system.cpu0.dcache.tags.occ_blocks::cpu0.data   511.563564                       # Average occupied blocks per requestor
system.cpu0.dcache.tags.occ_percent::cpu0.data     0.999148                       # Average percentage of cache occupancy
system.cpu0.dcache.tags.occ_percent::total     0.999148                       # Average percentage of cache occupancy
system.cpu0.dcache.tags.occ_task_id_blocks::1024          512                       # Occupied blocks per task id
system.cpu0.dcache.tags.age_task_id_blocks_1024::0           94                       # Occupied blocks per task id
system.cpu0.dcache.tags.age_task_id_blocks_1024::1          417                       # Occupied blocks per task id
system.cpu0.dcache.tags.age_task_id_blocks_1024::3            1                       # Occupied blocks per task id
system.cpu0.dcache.tags.occ_task_id_percent::1024            1                       # Percentage of cache occupancy per task id
system.cpu0.dcache.tags.tag_accesses         26953682                       # Number of tag accesses
system.cpu0.dcache.tags.data_accesses        26953682                       # Number of data accesses
system.cpu0.dcache.pwrStateResidencyTicks::UNDEFINED  37527676092                       # Cumulative time (in ticks) in various power states
system.cpu0.dcache.ReadReq_hits::cpu0.data       206379                       # number of ReadReq hits
system.cpu0.dcache.ReadReq_hits::total         206379                       # number of ReadReq hits
system.cpu0.dcache.WriteReq_hits::cpu0.data      2727015                       # number of WriteReq hits
system.cpu0.dcache.WriteReq_hits::total       2727015                       # number of WriteReq hits
system.cpu0.dcache.demand_hits::cpu0.data      2933394                       # number of demand (read+write) hits
system.cpu0.dcache.demand_hits::total         2933394                       # number of demand (read+write) hits
system.cpu0.dcache.overall_hits::cpu0.data      2933394                       # number of overall hits
system.cpu0.dcache.overall_hits::total        2933394                       # number of overall hits
system.cpu0.dcache.ReadReq_misses::cpu0.data         1898                       # number of ReadReq misses
system.cpu0.dcache.ReadReq_misses::total         1898                       # number of ReadReq misses
system.cpu0.dcache.WriteReq_misses::cpu0.data       385577                       # number of WriteReq misses
system.cpu0.dcache.WriteReq_misses::total       385577                       # number of WriteReq misses
system.cpu0.dcache.demand_misses::cpu0.data       387475                       # number of demand (read+write) misses
system.cpu0.dcache.demand_misses::total        387475                       # number of demand (read+write) misses
system.cpu0.dcache.overall_misses::cpu0.data       387475                       # number of overall misses
system.cpu0.dcache.overall_misses::total       387475                       # number of overall misses
system.cpu0.dcache.ReadReq_miss_latency::cpu0.data     59254020                       # number of ReadReq miss cycles
system.cpu0.dcache.ReadReq_miss_latency::total     59254020                       # number of ReadReq miss cycles
system.cpu0.dcache.WriteReq_miss_latency::cpu0.data  35616720291                       # number of WriteReq miss cycles
system.cpu0.dcache.WriteReq_miss_latency::total  35616720291                       # number of WriteReq miss cycles
system.cpu0.dcache.demand_miss_latency::cpu0.data  35675974311                       # number of demand (read+write) miss cycles
system.cpu0.dcache.demand_miss_latency::total  35675974311                       # number of demand (read+write) miss cycles
system.cpu0.dcache.overall_miss_latency::cpu0.data  35675974311                       # number of overall miss cycles
system.cpu0.dcache.overall_miss_latency::total  35675974311                       # number of overall miss cycles
system.cpu0.dcache.ReadReq_accesses::cpu0.data       208277                       # number of ReadReq accesses(hits+misses)
system.cpu0.dcache.ReadReq_accesses::total       208277                       # number of ReadReq accesses(hits+misses)
system.cpu0.dcache.WriteReq_accesses::cpu0.data      3112592                       # number of WriteReq accesses(hits+misses)
system.cpu0.dcache.WriteReq_accesses::total      3112592                       # number of WriteReq accesses(hits+misses)
system.cpu0.dcache.demand_accesses::cpu0.data      3320869                       # number of demand (read+write) accesses
system.cpu0.dcache.demand_accesses::total      3320869                       # number of demand (read+write) accesses
system.cpu0.dcache.overall_accesses::cpu0.data      3320869                       # number of overall (read+write) accesses
system.cpu0.dcache.overall_accesses::total      3320869                       # number of overall (read+write) accesses
system.cpu0.dcache.ReadReq_miss_rate::cpu0.data     0.009113                       # miss rate for ReadReq accesses
system.cpu0.dcache.ReadReq_miss_rate::total     0.009113                       # miss rate for ReadReq accesses
system.cpu0.dcache.WriteReq_miss_rate::cpu0.data     0.123876                       # miss rate for WriteReq accesses
system.cpu0.dcache.WriteReq_miss_rate::total     0.123876                       # miss rate for WriteReq accesses
system.cpu0.dcache.demand_miss_rate::cpu0.data     0.116679                       # miss rate for demand accesses
system.cpu0.dcache.demand_miss_rate::total     0.116679                       # miss rate for demand accesses
system.cpu0.dcache.overall_miss_rate::cpu0.data     0.116679                       # miss rate for overall accesses
system.cpu0.dcache.overall_miss_rate::total     0.116679                       # miss rate for overall accesses
system.cpu0.dcache.ReadReq_avg_miss_latency::cpu0.data 31219.188620                       # average ReadReq miss latency
system.cpu0.dcache.ReadReq_avg_miss_latency::total 31219.188620                       # average ReadReq miss latency
system.cpu0.dcache.WriteReq_avg_miss_latency::cpu0.data 92372.522975                       # average WriteReq miss latency
system.cpu0.dcache.WriteReq_avg_miss_latency::total 92372.522975                       # average WriteReq miss latency
system.cpu0.dcache.demand_avg_miss_latency::cpu0.data 92072.970672                       # average overall miss latency
system.cpu0.dcache.demand_avg_miss_latency::total 92072.970672                       # average overall miss latency
system.cpu0.dcache.overall_avg_miss_latency::cpu0.data 92072.970672                       # average overall miss latency
system.cpu0.dcache.overall_avg_miss_latency::total 92072.970672                       # average overall miss latency
system.cpu0.dcache.blocked_cycles::no_mshrs         5954                       # number of cycles access was blocked
system.cpu0.dcache.blocked_cycles::no_targets            0                       # number of cycles access was blocked
system.cpu0.dcache.blocked::no_mshrs              163                       # number of cycles access was blocked
system.cpu0.dcache.blocked::no_targets              0                       # number of cycles access was blocked
system.cpu0.dcache.avg_blocked_cycles::no_mshrs    36.527607                       # average number of cycles each access was blocked
system.cpu0.dcache.avg_blocked_cycles::no_targets          nan                       # average number of cycles each access was blocked
system.cpu0.dcache.writebacks::writebacks       385551                       # number of writebacks
system.cpu0.dcache.writebacks::total           385551                       # number of writebacks
system.cpu0.dcache.ReadReq_mshr_hits::cpu0.data          700                       # number of ReadReq MSHR hits
system.cpu0.dcache.ReadReq_mshr_hits::total          700                       # number of ReadReq MSHR hits
system.cpu0.dcache.WriteReq_mshr_hits::cpu0.data            1                       # number of WriteReq MSHR hits
system.cpu0.dcache.WriteReq_mshr_hits::total            1                       # number of WriteReq MSHR hits
system.cpu0.dcache.demand_mshr_hits::cpu0.data          701                       # number of demand (read+write) MSHR hits
system.cpu0.dcache.demand_mshr_hits::total          701                       # number of demand (read+write) MSHR hits
system.cpu0.dcache.overall_mshr_hits::cpu0.data          701                       # number of overall MSHR hits
system.cpu0.dcache.overall_mshr_hits::total          701                       # number of overall MSHR hits
system.cpu0.dcache.ReadReq_mshr_misses::cpu0.data         1198                       # number of ReadReq MSHR misses
system.cpu0.dcache.ReadReq_mshr_misses::total         1198                       # number of ReadReq MSHR misses
system.cpu0.dcache.WriteReq_mshr_misses::cpu0.data       385576                       # number of WriteReq MSHR misses
system.cpu0.dcache.WriteReq_mshr_misses::total       385576                       # number of WriteReq MSHR misses
system.cpu0.dcache.demand_mshr_misses::cpu0.data       386774                       # number of demand (read+write) MSHR misses
system.cpu0.dcache.demand_mshr_misses::total       386774                       # number of demand (read+write) MSHR misses
system.cpu0.dcache.overall_mshr_misses::cpu0.data       386774                       # number of overall MSHR misses
system.cpu0.dcache.overall_mshr_misses::total       386774                       # number of overall MSHR misses
system.cpu0.dcache.ReadReq_mshr_miss_latency::cpu0.data     32078223                       # number of ReadReq MSHR miss cycles
system.cpu0.dcache.ReadReq_mshr_miss_latency::total     32078223                       # number of ReadReq MSHR miss cycles
system.cpu0.dcache.WriteReq_mshr_miss_latency::cpu0.data  35359911024                       # number of WriteReq MSHR miss cycles
system.cpu0.dcache.WriteReq_mshr_miss_latency::total  35359911024                       # number of WriteReq MSHR miss cycles
system.cpu0.dcache.demand_mshr_miss_latency::cpu0.data  35391989247                       # number of demand (read+write) MSHR miss cycles
system.cpu0.dcache.demand_mshr_miss_latency::total  35391989247                       # number of demand (read+write) MSHR miss cycles
system.cpu0.dcache.overall_mshr_miss_latency::cpu0.data  35391989247                       # number of overall MSHR miss cycles
system.cpu0.dcache.overall_mshr_miss_latency::total  35391989247                       # number of overall MSHR miss cycles
system.cpu0.dcache.ReadReq_mshr_miss_rate::cpu0.data     0.005752                       # mshr miss rate for ReadReq accesses
system.cpu0.dcache.ReadReq_mshr_miss_rate::total     0.005752                       # mshr miss rate for ReadReq accesses
system.cpu0.dcache.WriteReq_mshr_miss_rate::cpu0.data     0.123876                       # mshr miss rate for WriteReq accesses
system.cpu0.dcache.WriteReq_mshr_miss_rate::total     0.123876                       # mshr miss rate for WriteReq accesses
system.cpu0.dcache.demand_mshr_miss_rate::cpu0.data     0.116468                       # mshr miss rate for demand accesses
system.cpu0.dcache.demand_mshr_miss_rate::total     0.116468                       # mshr miss rate for demand accesses
system.cpu0.dcache.overall_mshr_miss_rate::cpu0.data     0.116468                       # mshr miss rate for overall accesses
system.cpu0.dcache.overall_mshr_miss_rate::total     0.116468                       # mshr miss rate for overall accesses
system.cpu0.dcache.ReadReq_avg_mshr_miss_latency::cpu0.data 26776.479967                       # average ReadReq mshr miss latency
system.cpu0.dcache.ReadReq_avg_mshr_miss_latency::total 26776.479967                       # average ReadReq mshr miss latency
system.cpu0.dcache.WriteReq_avg_mshr_miss_latency::cpu0.data 91706.721954                       # average WriteReq mshr miss latency
system.cpu0.dcache.WriteReq_avg_mshr_miss_latency::total 91706.721954                       # average WriteReq mshr miss latency
system.cpu0.dcache.demand_avg_mshr_miss_latency::cpu0.data 91505.605979                       # average overall mshr miss latency
system.cpu0.dcache.demand_avg_mshr_miss_latency::total 91505.605979                       # average overall mshr miss latency
system.cpu0.dcache.overall_avg_mshr_miss_latency::cpu0.data 91505.605979                       # average overall mshr miss latency
system.cpu0.dcache.overall_avg_mshr_miss_latency::total 91505.605979                       # average overall mshr miss latency
system.cpu0.dtb_walker_cache.tags.pwrStateResidencyTicks::UNDEFINED  37527676092                       # Cumulative time (in ticks) in various power states
system.cpu0.dtb_walker_cache.tags.replacements            0                       # number of replacements
system.cpu0.dtb_walker_cache.tags.tagsinuse            0                       # Cycle average of tags in use
system.cpu0.dtb_walker_cache.tags.total_refs            0                       # Total number of references to valid blocks.
system.cpu0.dtb_walker_cache.tags.sampled_refs            0                       # Sample count of references to valid blocks.
system.cpu0.dtb_walker_cache.tags.avg_refs          nan                       # Average number of references to valid blocks.
system.cpu0.dtb_walker_cache.tags.warmup_cycle            0                       # Cycle when the warmup percentage was hit.
system.cpu0.dtb_walker_cache.tags.tag_accesses            0                       # Number of tag accesses
system.cpu0.dtb_walker_cache.tags.data_accesses            0                       # Number of data accesses
system.cpu0.dtb_walker_cache.pwrStateResidencyTicks::UNDEFINED  37527676092                       # Cumulative time (in ticks) in various power states
system.cpu0.dtb_walker_cache.blocked_cycles::no_mshrs            0                       # number of cycles access was blocked
system.cpu0.dtb_walker_cache.blocked_cycles::no_targets            0                       # number of cycles access was blocked
system.cpu0.dtb_walker_cache.blocked::no_mshrs            0                       # number of cycles access was blocked
system.cpu0.dtb_walker_cache.blocked::no_targets            0                       # number of cycles access was blocked
system.cpu0.dtb_walker_cache.avg_blocked_cycles::no_mshrs          nan                       # average number of cycles each access was blocked
system.cpu0.dtb_walker_cache.avg_blocked_cycles::no_targets          nan                       # average number of cycles each access was blocked
system.cpu0.icache.tags.pwrStateResidencyTicks::UNDEFINED  37527676092                       # Cumulative time (in ticks) in various power states
system.cpu0.icache.tags.replacements             1191                       # number of replacements
system.cpu0.icache.tags.tagsinuse          511.738743                       # Cycle average of tags in use
system.cpu0.icache.tags.total_refs            1223365                       # Total number of references to valid blocks.
system.cpu0.icache.tags.sampled_refs             1703                       # Sample count of references to valid blocks.
system.cpu0.icache.tags.avg_refs           718.358779                       # Average number of references to valid blocks.
system.cpu0.icache.tags.warmup_cycle            76257                       # Cycle when the warmup percentage was hit.
system.cpu0.icache.tags.occ_blocks::cpu0.inst   511.738743                       # Average occupied blocks per requestor
system.cpu0.icache.tags.occ_percent::cpu0.inst     0.999490                       # Average percentage of cache occupancy
system.cpu0.icache.tags.occ_percent::total     0.999490                       # Average percentage of cache occupancy
system.cpu0.icache.tags.occ_task_id_blocks::1024          512                       # Occupied blocks per task id
system.cpu0.icache.tags.age_task_id_blocks_1024::2            5                       # Occupied blocks per task id
system.cpu0.icache.tags.age_task_id_blocks_1024::3           36                       # Occupied blocks per task id
system.cpu0.icache.tags.age_task_id_blocks_1024::4          471                       # Occupied blocks per task id
system.cpu0.icache.tags.occ_task_id_percent::1024            1                       # Percentage of cache occupancy per task id
system.cpu0.icache.tags.tag_accesses          9806511                       # Number of tag accesses
system.cpu0.icache.tags.data_accesses         9806511                       # Number of data accesses
system.cpu0.icache.pwrStateResidencyTicks::UNDEFINED  37527676092                       # Cumulative time (in ticks) in various power states
system.cpu0.icache.ReadReq_hits::cpu0.inst      1223365                       # number of ReadReq hits
system.cpu0.icache.ReadReq_hits::total        1223365                       # number of ReadReq hits
system.cpu0.icache.demand_hits::cpu0.inst      1223365                       # number of demand (read+write) hits
system.cpu0.icache.demand_hits::total         1223365                       # number of demand (read+write) hits
system.cpu0.icache.overall_hits::cpu0.inst      1223365                       # number of overall hits
system.cpu0.icache.overall_hits::total        1223365                       # number of overall hits
system.cpu0.icache.ReadReq_misses::cpu0.inst         2236                       # number of ReadReq misses
system.cpu0.icache.ReadReq_misses::total         2236                       # number of ReadReq misses
system.cpu0.icache.demand_misses::cpu0.inst         2236                       # number of demand (read+write) misses
system.cpu0.icache.demand_misses::total          2236                       # number of demand (read+write) misses
system.cpu0.icache.overall_misses::cpu0.inst         2236                       # number of overall misses
system.cpu0.icache.overall_misses::total         2236                       # number of overall misses
system.cpu0.icache.ReadReq_miss_latency::cpu0.inst    122908631                       # number of ReadReq miss cycles
system.cpu0.icache.ReadReq_miss_latency::total    122908631                       # number of ReadReq miss cycles
system.cpu0.icache.demand_miss_latency::cpu0.inst    122908631                       # number of demand (read+write) miss cycles
system.cpu0.icache.demand_miss_latency::total    122908631                       # number of demand (read+write) miss cycles
system.cpu0.icache.overall_miss_latency::cpu0.inst    122908631                       # number of overall miss cycles
system.cpu0.icache.overall_miss_latency::total    122908631                       # number of overall miss cycles
system.cpu0.icache.ReadReq_accesses::cpu0.inst      1225601                       # number of ReadReq accesses(hits+misses)
system.cpu0.icache.ReadReq_accesses::total      1225601                       # number of ReadReq accesses(hits+misses)
system.cpu0.icache.demand_accesses::cpu0.inst      1225601                       # number of demand (read+write) accesses
system.cpu0.icache.demand_accesses::total      1225601                       # number of demand (read+write) accesses
system.cpu0.icache.overall_accesses::cpu0.inst      1225601                       # number of overall (read+write) accesses
system.cpu0.icache.overall_accesses::total      1225601                       # number of overall (read+write) accesses
system.cpu0.icache.ReadReq_miss_rate::cpu0.inst     0.001824                       # miss rate for ReadReq accesses
system.cpu0.icache.ReadReq_miss_rate::total     0.001824                       # miss rate for ReadReq accesses
system.cpu0.icache.demand_miss_rate::cpu0.inst     0.001824                       # miss rate for demand accesses
system.cpu0.icache.demand_miss_rate::total     0.001824                       # miss rate for demand accesses
system.cpu0.icache.overall_miss_rate::cpu0.inst     0.001824                       # miss rate for overall accesses
system.cpu0.icache.overall_miss_rate::total     0.001824                       # miss rate for overall accesses
system.cpu0.icache.ReadReq_avg_miss_latency::cpu0.inst 54968.081843                       # average ReadReq miss latency
system.cpu0.icache.ReadReq_avg_miss_latency::total 54968.081843                       # average ReadReq miss latency
system.cpu0.icache.demand_avg_miss_latency::cpu0.inst 54968.081843                       # average overall miss latency
system.cpu0.icache.demand_avg_miss_latency::total 54968.081843                       # average overall miss latency
system.cpu0.icache.overall_avg_miss_latency::cpu0.inst 54968.081843                       # average overall miss latency
system.cpu0.icache.overall_avg_miss_latency::total 54968.081843                       # average overall miss latency
system.cpu0.icache.blocked_cycles::no_mshrs         3033                       # number of cycles access was blocked
system.cpu0.icache.blocked_cycles::no_targets            0                       # number of cycles access was blocked
system.cpu0.icache.blocked::no_mshrs               26                       # number of cycles access was blocked
system.cpu0.icache.blocked::no_targets              0                       # number of cycles access was blocked
system.cpu0.icache.avg_blocked_cycles::no_mshrs   116.653846                       # average number of cycles each access was blocked
system.cpu0.icache.avg_blocked_cycles::no_targets          nan                       # average number of cycles each access was blocked
system.cpu0.icache.writebacks::writebacks         1191                       # number of writebacks
system.cpu0.icache.writebacks::total             1191                       # number of writebacks
system.cpu0.icache.ReadReq_mshr_hits::cpu0.inst          533                       # number of ReadReq MSHR hits
system.cpu0.icache.ReadReq_mshr_hits::total          533                       # number of ReadReq MSHR hits
system.cpu0.icache.demand_mshr_hits::cpu0.inst          533                       # number of demand (read+write) MSHR hits
system.cpu0.icache.demand_mshr_hits::total          533                       # number of demand (read+write) MSHR hits
system.cpu0.icache.overall_mshr_hits::cpu0.inst          533                       # number of overall MSHR hits
system.cpu0.icache.overall_mshr_hits::total          533                       # number of overall MSHR hits
system.cpu0.icache.ReadReq_mshr_misses::cpu0.inst         1703                       # number of ReadReq MSHR misses
system.cpu0.icache.ReadReq_mshr_misses::total         1703                       # number of ReadReq MSHR misses
system.cpu0.icache.demand_mshr_misses::cpu0.inst         1703                       # number of demand (read+write) MSHR misses
system.cpu0.icache.demand_mshr_misses::total         1703                       # number of demand (read+write) MSHR misses
system.cpu0.icache.overall_mshr_misses::cpu0.inst         1703                       # number of overall MSHR misses
system.cpu0.icache.overall_mshr_misses::total         1703                       # number of overall MSHR misses
system.cpu0.icache.ReadReq_mshr_miss_latency::cpu0.inst     91362210                       # number of ReadReq MSHR miss cycles
system.cpu0.icache.ReadReq_mshr_miss_latency::total     91362210                       # number of ReadReq MSHR miss cycles
system.cpu0.icache.demand_mshr_miss_latency::cpu0.inst     91362210                       # number of demand (read+write) MSHR miss cycles
system.cpu0.icache.demand_mshr_miss_latency::total     91362210                       # number of demand (read+write) MSHR miss cycles
system.cpu0.icache.overall_mshr_miss_latency::cpu0.inst     91362210                       # number of overall MSHR miss cycles
system.cpu0.icache.overall_mshr_miss_latency::total     91362210                       # number of overall MSHR miss cycles
system.cpu0.icache.ReadReq_mshr_miss_rate::cpu0.inst     0.001390                       # mshr miss rate for ReadReq accesses
system.cpu0.icache.ReadReq_mshr_miss_rate::total     0.001390                       # mshr miss rate for ReadReq accesses
system.cpu0.icache.demand_mshr_miss_rate::cpu0.inst     0.001390                       # mshr miss rate for demand accesses
system.cpu0.icache.demand_mshr_miss_rate::total     0.001390                       # mshr miss rate for demand accesses
system.cpu0.icache.overall_mshr_miss_rate::cpu0.inst     0.001390                       # mshr miss rate for overall accesses
system.cpu0.icache.overall_mshr_miss_rate::total     0.001390                       # mshr miss rate for overall accesses
system.cpu0.icache.ReadReq_avg_mshr_miss_latency::cpu0.inst 53647.803876                       # average ReadReq mshr miss latency
system.cpu0.icache.ReadReq_avg_mshr_miss_latency::total 53647.803876                       # average ReadReq mshr miss latency
system.cpu0.icache.demand_avg_mshr_miss_latency::cpu0.inst 53647.803876                       # average overall mshr miss latency
system.cpu0.icache.demand_avg_mshr_miss_latency::total 53647.803876                       # average overall mshr miss latency
system.cpu0.icache.overall_avg_mshr_miss_latency::cpu0.inst 53647.803876                       # average overall mshr miss latency
system.cpu0.icache.overall_avg_mshr_miss_latency::total 53647.803876                       # average overall mshr miss latency
system.cpu0.itb_walker_cache.tags.pwrStateResidencyTicks::UNDEFINED  37527676092                       # Cumulative time (in ticks) in various power states
system.cpu0.itb_walker_cache.tags.replacements            0                       # number of replacements
system.cpu0.itb_walker_cache.tags.tagsinuse            0                       # Cycle average of tags in use
system.cpu0.itb_walker_cache.tags.total_refs            0                       # Total number of references to valid blocks.
system.cpu0.itb_walker_cache.tags.sampled_refs            0                       # Sample count of references to valid blocks.
system.cpu0.itb_walker_cache.tags.avg_refs          nan                       # Average number of references to valid blocks.
system.cpu0.itb_walker_cache.tags.warmup_cycle            0                       # Cycle when the warmup percentage was hit.
system.cpu0.itb_walker_cache.tags.tag_accesses            0                       # Number of tag accesses
system.cpu0.itb_walker_cache.tags.data_accesses            0                       # Number of data accesses
system.cpu0.itb_walker_cache.pwrStateResidencyTicks::UNDEFINED  37527676092                       # Cumulative time (in ticks) in various power states
system.cpu0.itb_walker_cache.blocked_cycles::no_mshrs            0                       # number of cycles access was blocked
system.cpu0.itb_walker_cache.blocked_cycles::no_targets            0                       # number of cycles access was blocked
system.cpu0.itb_walker_cache.blocked::no_mshrs            0                       # number of cycles access was blocked
system.cpu0.itb_walker_cache.blocked::no_targets            0                       # number of cycles access was blocked
system.cpu0.itb_walker_cache.avg_blocked_cycles::no_mshrs          nan                       # average number of cycles each access was blocked
system.cpu0.itb_walker_cache.avg_blocked_cycles::no_targets          nan                       # average number of cycles each access was blocked
system.cpu0.l2cache.tags.pwrStateResidencyTicks::UNDEFINED  37527676092                       # Cumulative time (in ticks) in various power states
system.cpu0.l2cache.tags.replacements          383384                       # number of replacements
system.cpu0.l2cache.tags.tagsinuse        4081.029059                       # Cycle average of tags in use
system.cpu0.l2cache.tags.total_refs            388392                       # Total number of references to valid blocks.
system.cpu0.l2cache.tags.sampled_refs          387480                       # Sample count of references to valid blocks.
system.cpu0.l2cache.tags.avg_refs            1.002354                       # Average number of references to valid blocks.
system.cpu0.l2cache.tags.warmup_cycle           73000                       # Cycle when the warmup percentage was hit.
system.cpu0.l2cache.tags.occ_blocks::writebacks     1.218182                       # Average occupied blocks per requestor
system.cpu0.l2cache.tags.occ_blocks::cpu0.inst     8.572410                       # Average occupied blocks per requestor
system.cpu0.l2cache.tags.occ_blocks::cpu0.data  4071.238467                       # Average occupied blocks per requestor
system.cpu0.l2cache.tags.occ_percent::writebacks     0.000297                       # Average percentage of cache occupancy
system.cpu0.l2cache.tags.occ_percent::cpu0.inst     0.002093                       # Average percentage of cache occupancy
system.cpu0.l2cache.tags.occ_percent::cpu0.data     0.993955                       # Average percentage of cache occupancy
system.cpu0.l2cache.tags.occ_percent::total     0.996345                       # Average percentage of cache occupancy
system.cpu0.l2cache.tags.occ_task_id_blocks::1024         4096                       # Occupied blocks per task id
system.cpu0.l2cache.tags.age_task_id_blocks_1024::0           94                       # Occupied blocks per task id
system.cpu0.l2cache.tags.age_task_id_blocks_1024::1          889                       # Occupied blocks per task id
system.cpu0.l2cache.tags.age_task_id_blocks_1024::2         3111                       # Occupied blocks per task id
system.cpu0.l2cache.tags.age_task_id_blocks_1024::3            2                       # Occupied blocks per task id
system.cpu0.l2cache.tags.occ_task_id_percent::1024            1                       # Percentage of cache occupancy per task id
system.cpu0.l2cache.tags.tag_accesses         3490972                       # Number of tag accesses
system.cpu0.l2cache.tags.data_accesses        3490972                       # Number of data accesses
system.cpu0.l2cache.pwrStateResidencyTicks::UNDEFINED  37527676092                       # Cumulative time (in ticks) in various power states
system.cpu0.l2cache.WritebackDirty_hits::writebacks       385551                       # number of WritebackDirty hits
system.cpu0.l2cache.WritebackDirty_hits::total       385551                       # number of WritebackDirty hits
system.cpu0.l2cache.WritebackClean_hits::writebacks         1183                       # number of WritebackClean hits
system.cpu0.l2cache.WritebackClean_hits::total         1183                       # number of WritebackClean hits
system.cpu0.l2cache.UpgradeReq_hits::cpu0.data           44                       # number of UpgradeReq hits
system.cpu0.l2cache.UpgradeReq_hits::total           44                       # number of UpgradeReq hits
system.cpu0.l2cache.ReadExReq_hits::cpu0.data            2                       # number of ReadExReq hits
system.cpu0.l2cache.ReadExReq_hits::total            2                       # number of ReadExReq hits
system.cpu0.l2cache.ReadCleanReq_hits::cpu0.inst          408                       # number of ReadCleanReq hits
system.cpu0.l2cache.ReadCleanReq_hits::total          408                       # number of ReadCleanReq hits
system.cpu0.l2cache.ReadSharedReq_hits::cpu0.data          692                       # number of ReadSharedReq hits
[...]
system.l3.demand_mshr_miss_latency::cpu2.inst     73438471                       # number of demand (read+write) MSHR miss cycles
system.l3.demand_mshr_miss_latency::cpu2.data  29498177446                       # number of demand (read+write) MSHR miss cycles
system.l3.demand_mshr_miss_latency::cpu3.inst     70573842                       # number of demand (read+write) MSHR miss cycles
system.l3.demand_mshr_miss_latency::cpu3.data  29463000913                       # number of demand (read+write) MSHR miss cycles
system.l3.demand_mshr_miss_latency::total 118195909913                       # number of demand (read+write) MSHR miss cycles
system.l3.overall_mshr_miss_latency::cpu0.inst     70197989                       # number of overall MSHR miss cycles
system.l3.overall_mshr_miss_latency::cpu0.data  29449462240                       # number of overall MSHR miss cycles
system.l3.overall_mshr_miss_latency::cpu1.inst     71787055                       # number of overall MSHR miss cycles
system.l3.overall_mshr_miss_latency::cpu1.data  29499271957                       # number of overall MSHR miss cycles
system.l3.overall_mshr_miss_latency::cpu2.inst     73438471                       # number of overall MSHR miss cycles
system.l3.overall_mshr_miss_latency::cpu2.data  29498177446                       # number of overall MSHR miss cycles
system.l3.overall_mshr_miss_latency::cpu3.inst     70573842                       # number of overall MSHR miss cycles
system.l3.overall_mshr_miss_latency::cpu3.data  29463000913                       # number of overall MSHR miss cycles
system.l3.overall_mshr_miss_latency::total 118195909913                       # number of overall MSHR miss cycles
system.l3.CleanEvict_mshr_miss_rate::writebacks          inf                       # mshr miss rate for CleanEvict accesses
system.l3.CleanEvict_mshr_miss_rate::total          inf                       # mshr miss rate for CleanEvict accesses
system.l3.ReadExReq_mshr_miss_rate::cpu0.data     0.964861                       # mshr miss rate for ReadExReq accesses
system.l3.ReadExReq_mshr_miss_rate::cpu1.data     0.964335                       # mshr miss rate for ReadExReq accesses
system.l3.ReadExReq_mshr_miss_rate::cpu2.data     0.970152                       # mshr miss rate for ReadExReq accesses
system.l3.ReadExReq_mshr_miss_rate::cpu3.data     0.963848                       # mshr miss rate for ReadExReq accesses
system.l3.ReadExReq_mshr_miss_rate::total     0.965795                       # mshr miss rate for ReadExReq accesses
system.l3.ReadSharedReq_mshr_miss_rate::cpu0.inst            1                       # mshr miss rate for ReadSharedReq accesses
system.l3.ReadSharedReq_mshr_miss_rate::cpu0.data     0.667984                       # mshr miss rate for ReadSharedReq accesses
system.l3.ReadSharedReq_mshr_miss_rate::cpu1.inst            1                       # mshr miss rate for ReadSharedReq accesses
system.l3.ReadSharedReq_mshr_miss_rate::cpu1.data     0.662813                       # mshr miss rate for ReadSharedReq accesses
system.l3.ReadSharedReq_mshr_miss_rate::cpu2.inst            1                       # mshr miss rate for ReadSharedReq accesses
system.l3.ReadSharedReq_mshr_miss_rate::cpu2.data     0.666016                       # mshr miss rate for ReadSharedReq accesses
system.l3.ReadSharedReq_mshr_miss_rate::cpu3.inst            1                       # mshr miss rate for ReadSharedReq accesses
system.l3.ReadSharedReq_mshr_miss_rate::cpu3.data     0.673870                       # mshr miss rate for ReadSharedReq accesses
system.l3.ReadSharedReq_mshr_miss_rate::total     0.905830                       # mshr miss rate for ReadSharedReq accesses
system.l3.demand_mshr_miss_rate::cpu0.inst            1                       # mshr miss rate for demand accesses
system.l3.demand_mshr_miss_rate::cpu0.data     0.964472                       # mshr miss rate for demand accesses
system.l3.demand_mshr_miss_rate::cpu1.inst            1                       # mshr miss rate for demand accesses
system.l3.demand_mshr_miss_rate::cpu1.data     0.963927                       # mshr miss rate for demand accesses
system.l3.demand_mshr_miss_rate::cpu2.inst            1                       # mshr miss rate for demand accesses
system.l3.demand_mshr_miss_rate::cpu2.data     0.969746                       # mshr miss rate for demand accesses
system.l3.demand_mshr_miss_rate::cpu3.inst            1                       # mshr miss rate for demand accesses
system.l3.demand_mshr_miss_rate::cpu3.data     0.963464                       # mshr miss rate for demand accesses
system.l3.demand_mshr_miss_rate::total       0.965515                       # mshr miss rate for demand accesses
system.l3.overall_mshr_miss_rate::cpu0.inst            1                       # mshr miss rate for overall accesses
system.l3.overall_mshr_miss_rate::cpu0.data     0.964472                       # mshr miss rate for overall accesses
system.l3.overall_mshr_miss_rate::cpu1.inst            1                       # mshr miss rate for overall accesses
system.l3.overall_mshr_miss_rate::cpu1.data     0.963927                       # mshr miss rate for overall accesses
system.l3.overall_mshr_miss_rate::cpu2.inst            1                       # mshr miss rate for overall accesses
system.l3.overall_mshr_miss_rate::cpu2.data     0.969746                       # mshr miss rate for overall accesses
system.l3.overall_mshr_miss_rate::cpu3.inst            1                       # mshr miss rate for overall accesses
system.l3.overall_mshr_miss_rate::cpu3.data     0.963464                       # mshr miss rate for overall accesses
system.l3.overall_mshr_miss_rate::total      0.965515                       # mshr miss rate for overall accesses
system.l3.ReadExReq_avg_mshr_miss_latency::cpu0.data 79112.700083                       # average ReadExReq mshr miss latency
system.l3.ReadExReq_avg_mshr_miss_latency::cpu1.data 79789.385102                       # average ReadExReq mshr miss latency
system.l3.ReadExReq_avg_mshr_miss_latency::cpu2.data 79334.186161                       # average ReadExReq mshr miss latency
system.l3.ReadExReq_avg_mshr_miss_latency::cpu3.data 79440.144024                       # average ReadExReq mshr miss latency
system.l3.ReadExReq_avg_mshr_miss_latency::total 79418.464711                       # average ReadExReq mshr miss latency
system.l3.ReadSharedReq_avg_mshr_miss_latency::cpu0.inst 54206.941313                       # average ReadSharedReq mshr miss latency
system.l3.ReadSharedReq_avg_mshr_miss_latency::cpu0.data 61783.210059                       # average ReadSharedReq mshr miss latency
system.l3.ReadSharedReq_avg_mshr_miss_latency::cpu1.inst 55605.774593                       # average ReadSharedReq mshr miss latency
system.l3.ReadSharedReq_avg_mshr_miss_latency::cpu1.data 72654.973837                       # average ReadSharedReq mshr miss latency
system.l3.ReadSharedReq_avg_mshr_miss_latency::cpu2.inst 56973.212568                       # average ReadSharedReq mshr miss latency
system.l3.ReadSharedReq_avg_mshr_miss_latency::cpu2.data 64856.061584                       # average ReadSharedReq mshr miss latency
system.l3.ReadSharedReq_avg_mshr_miss_latency::cpu3.inst 54287.570769                       # average ReadSharedReq mshr miss latency
system.l3.ReadSharedReq_avg_mshr_miss_latency::cpu3.data 69486.938776                       # average ReadSharedReq mshr miss latency
system.l3.ReadSharedReq_avg_mshr_miss_latency::total 57762.319217                       # average ReadSharedReq mshr miss latency
system.l3.demand_avg_mshr_miss_latency::cpu0.inst 54206.941313                       # average overall mshr miss latency
system.l3.demand_avg_mshr_miss_latency::cpu0.data 79096.968046                       # average overall mshr miss latency
system.l3.demand_avg_mshr_miss_latency::cpu1.inst 55605.774593                       # average overall mshr miss latency
system.l3.demand_avg_mshr_miss_latency::cpu1.data 79782.747453                       # average overall mshr miss latency
system.l3.demand_avg_mshr_miss_latency::cpu2.inst 56973.212568                       # average overall mshr miss latency
system.l3.demand_avg_mshr_miss_latency::cpu2.data 79320.910408                       # average overall mshr miss latency
system.l3.demand_avg_mshr_miss_latency::cpu3.inst 54287.570769                       # average overall mshr miss latency
system.l3.demand_avg_mshr_miss_latency::cpu3.data 79430.940169                       # average overall mshr miss latency
system.l3.demand_avg_mshr_miss_latency::total 79323.398939                       # average overall mshr miss latency
system.l3.overall_avg_mshr_miss_latency::cpu0.inst 54206.941313                       # average overall mshr miss latency
system.l3.overall_avg_mshr_miss_latency::cpu0.data 79096.968046                       # average overall mshr miss latency
system.l3.overall_avg_mshr_miss_latency::cpu1.inst 55605.774593                       # average overall mshr miss latency
system.l3.overall_avg_mshr_miss_latency::cpu1.data 79782.747453                       # average overall mshr miss latency
system.l3.overall_avg_mshr_miss_latency::cpu2.inst 56973.212568                       # average overall mshr miss latency
system.l3.overall_avg_mshr_miss_latency::cpu2.data 79320.910408                       # average overall mshr miss latency
system.l3.overall_avg_mshr_miss_latency::cpu3.inst 54287.570769                       # average overall mshr miss latency
system.l3.overall_avg_mshr_miss_latency::cpu3.data 79430.940169                       # average overall mshr miss latency
system.l3.overall_avg_mshr_miss_latency::total 79323.398939                       # average overall mshr miss latency
system.membus.snoop_filter.tot_requests       2847078                       # Total number of requests made to the snoop filter.
system.membus.snoop_filter.hit_single_requests      1357029                       # Number of requests hitting in the snoop filter with a single holder of the requested data.
system.membus.snoop_filter.hit_multi_requests            0                       # Number of requests hitting in the snoop filter with multiple (>1) holders of the requested data.
system.membus.snoop_filter.tot_snoops               0                       # Total number of snoops made to the snoop filter.
system.membus.snoop_filter.hit_single_snoops            0                       # Number of snoops hitting in the snoop filter with a single holder of the requested data.
system.membus.snoop_filter.hit_multi_snoops            0                       # Number of snoops hitting in the snoop filter with multiple (>1) holders of the requested data.
system.membus.pwrStateResidencyTicks::UNDEFINED  37527676092                       # Cumulative time (in ticks) in various power states
system.membus.trans_dist::ReadResp               6541                       # Transaction distribution
system.membus.trans_dist::WritebackDirty      1352974                       # Transaction distribution
system.membus.trans_dist::CleanEvict             4055                       # Transaction distribution
system.membus.trans_dist::ReadExReq           1483508                       # Transaction distribution
system.membus.trans_dist::ReadExResp          1483507                       # Transaction distribution
system.membus.trans_dist::ReadSharedReq          6541                       # Transaction distribution
system.membus.pkt_count_system.l3.mem_side::system.mem_ctrls.port      4337126                       # Packet count per connected master and slave (bytes)
system.membus.pkt_count_system.l3.mem_side::total      4337126                       # Packet count per connected master and slave (bytes)
system.membus.pkt_count::total                4337126                       # Packet count per connected master and slave (bytes)
system.membus.pkt_size_system.l3.mem_side::system.mem_ctrls.port    181953408                       # Cumulative packet size per connected master and slave (bytes)
system.membus.pkt_size_system.l3.mem_side::total    181953408                       # Cumulative packet size per connected master and slave (bytes)
system.membus.pkt_size::total               181953408                       # Cumulative packet size per connected master and slave (bytes)
system.membus.snoops                                0                       # Total snoops (count)
system.membus.snoopTraffic                          0                       # Total snoop traffic (bytes)
system.membus.snoop_fanout::samples           1490049                       # Request fanout histogram
system.membus.snoop_fanout::mean                    0                       # Request fanout histogram
system.membus.snoop_fanout::stdev                   0                       # Request fanout histogram
system.membus.snoop_fanout::underflows              0      0.00%      0.00% # Request fanout histogram
system.membus.snoop_fanout::0                 1490049    100.00%    100.00% # Request fanout histogram
system.membus.snoop_fanout::1                       0      0.00%    100.00% # Request fanout histogram
system.membus.snoop_fanout::overflows               0      0.00%    100.00% # Request fanout histogram
system.membus.snoop_fanout::min_value               0                       # Request fanout histogram
system.membus.snoop_fanout::max_value               0                       # Request fanout histogram
system.membus.snoop_fanout::total             1490049                       # Request fanout histogram
system.membus.reqLayer8.occupancy          8797338163                       # Layer occupancy (ticks)
system.membus.reqLayer8.utilization              23.4                       # Layer utilization (%)
system.membus.respLayer1.occupancy         7843719329                       # Layer occupancy (ticks)
system.membus.respLayer1.utilization             20.9                       # Layer utilization (%)
system.tol3bus.snoop_filter.tot_requests      3068106                       # Total number of requests made to the snoop filter.
system.tol3bus.snoop_filter.hit_single_requests      1524835                       # Number of requests hitting in the snoop filter with a single holder of the requested data.
system.tol3bus.snoop_filter.hit_multi_requests            0                       # Number of requests hitting in the snoop filter with multiple (>1) holders of the requested data.
system.tol3bus.snoop_filter.tot_snoops           2477                       # Total number of snoops made to the snoop filter.
system.tol3bus.snoop_filter.hit_single_snoops         2477                       # Number of snoops hitting in the snoop filter with a single holder of the requested data.
system.tol3bus.snoop_filter.hit_multi_snoops            0                       # Number of snoops hitting in the snoop filter with multiple (>1) holders of the requested data.
system.tol3bus.pwrStateResidencyTicks::UNDEFINED  37527676092                       # Cumulative time (in ticks) in various power states
system.tol3bus.trans_dist::ReadResp              7221                       # Transaction distribution
system.tol3bus.trans_dist::WritebackDirty      2873544                       # Transaction distribution
system.tol3bus.trans_dist::CleanEvict           10291                       # Transaction distribution
system.tol3bus.trans_dist::ReadExReq          1536050                       # Transaction distribution
system.tol3bus.trans_dist::ReadExResp         1536047                       # Transaction distribution
system.tol3bus.trans_dist::ReadSharedReq         7221                       # Transaction distribution
system.tol3bus.pkt_count_system.cpu0.l2cache.mem_side::system.l3.cpu_side      1157384                       # Packet count per connected master and slave (bytes)
system.tol3bus.pkt_count_system.cpu1.l2cache.mem_side::system.l3.cpu_side      1150009                       # Packet count per connected master and slave (bytes)
system.tol3bus.pkt_count_system.cpu2.l2cache.mem_side::system.l3.cpu_side      1149715                       # Packet count per connected master and slave (bytes)
system.tol3bus.pkt_count_system.cpu3.l2cache.mem_side::system.l3.cpu_side      1154266                       # Packet count per connected master and slave (bytes)
system.tol3bus.pkt_count::total               4611374                       # Packet count per connected master and slave (bytes)
system.tol3bus.pkt_size_system.cpu0.l2cache.mem_side::system.l3.cpu_side     49215296                       # Cumulative packet size per connected master and slave (bytes)
system.tol3bus.pkt_size_system.cpu1.l2cache.mem_side::system.l3.cpu_side     48900416                       # Cumulative packet size per connected master and slave (bytes)
system.tol3bus.pkt_size_system.cpu2.l2cache.mem_side::system.l3.cpu_side     48888256                       # Cumulative packet size per connected master and slave (bytes)
system.tol3bus.pkt_size_system.cpu3.l2cache.mem_side::system.l3.cpu_side     49081664                       # Cumulative packet size per connected master and slave (bytes)
system.tol3bus.pkt_size::total              196085632                       # Cumulative packet size per connected master and slave (bytes)
system.tol3bus.snoops                         1359000                       # Total snoops (count)
system.tol3bus.snoopTraffic                  86590336                       # Total snoop traffic (bytes)
system.tol3bus.snoop_fanout::samples          2902271                       # Request fanout histogram
system.tol3bus.snoop_fanout::mean            0.000853                       # Request fanout histogram
system.tol3bus.snoop_fanout::stdev           0.029202                       # Request fanout histogram
system.tol3bus.snoop_fanout::underflows             0      0.00%      0.00% # Request fanout histogram
system.tol3bus.snoop_fanout::0                2899794     99.91%     99.91% # Request fanout histogram
system.tol3bus.snoop_fanout::1                   2477      0.09%    100.00% # Request fanout histogram
system.tol3bus.snoop_fanout::2                      0      0.00%    100.00% # Request fanout histogram
system.tol3bus.snoop_fanout::3                      0      0.00%    100.00% # Request fanout histogram
system.tol3bus.snoop_fanout::4                      0      0.00%    100.00% # Request fanout histogram
system.tol3bus.snoop_fanout::overflows              0      0.00%    100.00% # Request fanout histogram
system.tol3bus.snoop_fanout::min_value              0                       # Request fanout histogram
system.tol3bus.snoop_fanout::max_value              1                       # Request fanout histogram
system.tol3bus.snoop_fanout::total            2902271                       # Request fanout histogram
system.tol3bus.reqLayer0.occupancy         7126157759                       # Layer occupancy (ticks)
system.tol3bus.reqLayer0.utilization             19.0                       # Layer utilization (%)
system.tol3bus.respLayer0.occupancy        1230377215                       # Layer occupancy (ticks)
system.tol3bus.respLayer0.utilization             3.3                       # Layer utilization (%)
system.tol3bus.respLayer1.occupancy        1222192151                       # Layer occupancy (ticks)
system.tol3bus.respLayer1.utilization             3.3                       # Layer utilization (%)
system.tol3bus.respLayer2.occupancy        1221832563                       # Layer occupancy (ticks)
system.tol3bus.respLayer2.utilization             3.3                       # Layer utilization (%)
system.tol3bus.respLayer3.occupancy        1226703802                       # Layer occupancy (ticks)
system.tol3bus.respLayer3.utilization             3.3                       # Layer utilization (%)

---------- End Simulation Statistics   ----------
