
---------- Begin Simulation Statistics ----------
sim_seconds                                  0.116179                       # Number of seconds simulated
sim_ticks                                116179276095                       # Number of ticks simulated
final_tick                               709937917101                       # Number of ticks from beginning of simulation (restored from checkpoints and never reset)
sim_freq                                 1000000000000                       # Frequency of simulated ticks
host_inst_rate                                  87940                       # Simulator instruction rate (inst/s)
host_op_rate                                   118056                       # Simulator op (including micro ops) rate (op/s)
host_tick_rate                                2128811                       # Simulator tick rate (ticks/s)
host_mem_usage                               33918556                       # Number of bytes of host memory used
host_seconds                                 54574.73                       # Real time elapsed on the host
sim_insts                                  4799283926                       # Number of instructions simulated
sim_ops                                    6442875252                       # Number of ops (including micro ops) simulated
system.voltage_domain.voltage                       1                       # Voltage in Volts
system.clk_domain.clock                          1000                       # Clock period in ticks
system.mem_ctrls.pwrStateResidencyTicks::UNDEFINED 709937917101                       # Cumulative time (in ticks) in various power states
system.mem_ctrls.bytes_read::switch_cpus0.inst         6336                       # Number of bytes read from this memory
system.mem_ctrls.bytes_read::switch_cpus0.data    217822080                       # Number of bytes read from this memory
system.mem_ctrls.bytes_read::switch_cpus1.inst         7232                       # Number of bytes read from this memory
system.mem_ctrls.bytes_read::switch_cpus1.data    217896192                       # Number of bytes read from this memory
system.mem_ctrls.bytes_read::switch_cpus2.inst         6464                       # Number of bytes read from this memory
system.mem_ctrls.bytes_read::switch_cpus2.data    217986688                       # Number of bytes read from this memory
system.mem_ctrls.bytes_read::switch_cpus3.inst         6656                       # Number of bytes read from this memory
system.mem_ctrls.bytes_read::switch_cpus3.data    217864320                       # Number of bytes read from this memory
system.mem_ctrls.bytes_read::total          871595968                       # Number of bytes read from this memory
system.mem_ctrls.bytes_inst_read::switch_cpus0.inst         6336                       # Number of instructions bytes read from this memory
system.mem_ctrls.bytes_inst_read::switch_cpus1.inst         7232                       # Number of instructions bytes read from this memory
system.mem_ctrls.bytes_inst_read::switch_cpus2.inst         6464                       # Number of instructions bytes read from this memory
system.mem_ctrls.bytes_inst_read::switch_cpus3.inst         6656                       # Number of instructions bytes read from this memory
system.mem_ctrls.bytes_inst_read::total         26688                       # Number of instructions bytes read from this memory
system.mem_ctrls.bytes_written::writebacks    331096448                       # Number of bytes written to this memory
system.mem_ctrls.bytes_written::total       331096448                       # Number of bytes written to this memory
system.mem_ctrls.num_reads::switch_cpus0.inst           99                       # Number of read requests responded to by this memory
system.mem_ctrls.num_reads::switch_cpus0.data      3403470                       # Number of read requests responded to by this memory
system.mem_ctrls.num_reads::switch_cpus1.inst          113                       # Number of read requests responded to by this memory
system.mem_ctrls.num_reads::switch_cpus1.data      3404628                       # Number of read requests responded to by this memory
system.mem_ctrls.num_reads::switch_cpus2.inst          101                       # Number of read requests responded to by this memory
system.mem_ctrls.num_reads::switch_cpus2.data      3406042                       # Number of read requests responded to by this memory
system.mem_ctrls.num_reads::switch_cpus3.inst          104                       # Number of read requests responded to by this memory
system.mem_ctrls.num_reads::switch_cpus3.data      3404130                       # Number of read requests responded to by this memory
system.mem_ctrls.num_reads::total            13618687                       # Number of read requests responded to by this memory
system.mem_ctrls.num_writes::writebacks       5173382                       # Number of write requests responded to by this memory
system.mem_ctrls.num_writes::total            5173382                       # Number of write requests responded to by this memory
system.mem_ctrls.bw_read::switch_cpus0.inst        54536                       # Total read bandwidth from this memory (bytes/s)
system.mem_ctrls.bw_read::switch_cpus0.data   1874878957                       # Total read bandwidth from this memory (bytes/s)
system.mem_ctrls.bw_read::switch_cpus1.inst        62249                       # Total read bandwidth from this memory (bytes/s)
system.mem_ctrls.bw_read::switch_cpus1.data   1875516868                       # Total read bandwidth from this memory (bytes/s)
system.mem_ctrls.bw_read::switch_cpus2.inst        55638                       # Total read bandwidth from this memory (bytes/s)
system.mem_ctrls.bw_read::switch_cpus2.data   1876295802                       # Total read bandwidth from this memory (bytes/s)
system.mem_ctrls.bw_read::switch_cpus3.inst        57291                       # Total read bandwidth from this memory (bytes/s)
system.mem_ctrls.bw_read::switch_cpus3.data   1875242533                       # Total read bandwidth from this memory (bytes/s)
system.mem_ctrls.bw_read::total            7502163874                       # Total read bandwidth from this memory (bytes/s)
system.mem_ctrls.bw_inst_read::switch_cpus0.inst        54536                       # Instruction read bandwidth from this memory (bytes/s)
system.mem_ctrls.bw_inst_read::switch_cpus1.inst        62249                       # Instruction read bandwidth from this memory (bytes/s)
system.mem_ctrls.bw_inst_read::switch_cpus2.inst        55638                       # Instruction read bandwidth from this memory (bytes/s)
system.mem_ctrls.bw_inst_read::switch_cpus3.inst        57291                       # Instruction read bandwidth from this memory (bytes/s)
system.mem_ctrls.bw_inst_read::total           229714                       # Instruction read bandwidth from this memory (bytes/s)
system.mem_ctrls.bw_write::writebacks      2849875289                       # Write bandwidth from this memory (bytes/s)
system.mem_ctrls.bw_write::total           2849875289                       # Write bandwidth from this memory (bytes/s)
system.mem_ctrls.bw_total::writebacks      2849875289                       # Total bandwidth to/from this memory (bytes/s)
system.mem_ctrls.bw_total::switch_cpus0.inst        54536                       # Total bandwidth to/from this memory (bytes/s)
system.mem_ctrls.bw_total::switch_cpus0.data   1874878957                       # Total bandwidth to/from this memory (bytes/s)
system.mem_ctrls.bw_total::switch_cpus1.inst        62249                       # Total bandwidth to/from this memory (bytes/s)
system.mem_ctrls.bw_total::switch_cpus1.data   1875516868                       # Total bandwidth to/from this memory (bytes/s)
system.mem_ctrls.bw_total::switch_cpus2.inst        55638                       # Total bandwidth to/from this memory (bytes/s)
system.mem_ctrls.bw_total::switch_cpus2.data   1876295802                       # Total bandwidth to/from this memory (bytes/s)
system.mem_ctrls.bw_total::switch_cpus3.inst        57291                       # Total bandwidth to/from this memory (bytes/s)
system.mem_ctrls.bw_total::switch_cpus3.data   1875242533                       # Total bandwidth to/from this memory (bytes/s)
system.mem_ctrls.bw_total::total          10352039162                       # Total bandwidth to/from this memory (bytes/s)
system.pwrStateResidencyTicks::UNDEFINED 709937917101                       # Cumulative time (in ticks) in various power states
system.cpu_voltage_domain.voltage                   1                       # Voltage in Volts
system.cpu_clk_domain.clock                       333                       # Clock period in ticks
system.cpu0.dtb.walker.pwrStateResidencyTicks::UNDEFINED 709937917101                       # Cumulative time (in ticks) in various power states
system.cpu0.dtb.rdAccesses                          0                       # TLB accesses on read requests
system.cpu0.dtb.wrAccesses                          0                       # TLB accesses on write requests
system.cpu0.dtb.rdMisses                            0                       # TLB misses on read requests
system.cpu0.dtb.wrMisses                            0                       # TLB misses on write requests
system.cpu0.apic_clk_domain.clock                5328                       # Clock period in ticks
system.cpu0.interrupts.pwrStateResidencyTicks::UNDEFINED 709937917101                       # Cumulative time (in ticks) in various power states
system.cpu0.itb.walker.pwrStateResidencyTicks::UNDEFINED 709937917101                       # Cumulative time (in ticks) in various power states
system.cpu0.itb.rdAccesses                          0                       # TLB accesses on read requests
system.cpu0.itb.wrAccesses                          0                       # TLB accesses on write requests
system.cpu0.itb.rdMisses                            0                       # TLB misses on read requests
system.cpu0.itb.wrMisses                            0                       # TLB misses on write requests
system.cpu0.workload.numSyscalls                  133                       # Number of system calls
system.cpu0.numPwrStateTransitions                  1                       # Number of power state transitions
system.cpu0.pwrStateResidencyTicks::ON   593758641339                       # Cumulative time (in ticks) in various power states
system.cpu0.pwrStateResidencyTicks::OFF  116179275762                       # Cumulative time (in ticks) in various power states
system.cpu0.numCycles                               1                       # number of cpu cycles simulated
system.cpu0.numWorkItemsStarted                     0                       # number of work items this cpu started
system.cpu0.numWorkItemsCompleted                   0                       # number of work items this cpu completed
system.cpu0.committedInsts                          1                       # Number of instructions committed
system.cpu0.committedOps                            1                       # Number of ops (including micro ops) committed
system.cpu0.num_int_alu_accesses                    1                       # Number of integer alu accesses
system.cpu0.num_fp_alu_accesses                     0                       # Number of float alu accesses
system.cpu0.num_vec_alu_accesses                    0                       # Number of vector alu accesses
system.cpu0.num_func_calls                          0                       # number of times a function call or return occured
system.cpu0.num_conditional_control_insts            0                       # number of instructions that are conditional controls
system.cpu0.num_int_insts                           1                       # number of integer instructions
system.cpu0.num_fp_insts                            0                       # number of float instructions
system.cpu0.num_vec_insts                           0                       # number of vector instructions
system.cpu0.num_int_register_reads                  2                       # number of times the integer registers were read
system.cpu0.num_int_register_writes                 1                       # number of times the integer registers were written
system.cpu0.num_fp_register_reads                   0                       # number of times the floating registers were read
system.cpu0.num_fp_register_writes                  0                       # number of times the floating registers were written
system.cpu0.num_vec_register_reads                  0                       # number of times the vector registers were read
system.cpu0.num_vec_register_writes                 0                       # number of times the vector registers were written
system.cpu0.num_cc_register_writes                  2                       # number of times the CC registers were written
system.cpu0.num_mem_refs                            0                       # number of memory refs
system.cpu0.num_load_insts                          0                       # Number of load instructions
system.cpu0.num_store_insts                         0                       # Number of store instructions
system.cpu0.num_idle_cycles                         0                       # Number of idle cycles
system.cpu0.num_busy_cycles                         1                       # Number of busy cycles
system.cpu0.not_idle_fraction                       1                       # Percentage of non-idle cycles
system.cpu0.idle_fraction                           0                       # Percentage of idle cycles
system.cpu0.op_class::No_OpClass                    0      0.00%      0.00% # Class of executed instruction
system.cpu0.op_class::IntAlu                        1    100.00%    100.00% # Class of executed instruction
system.cpu0.op_class::IntMult                       0      0.00%    100.00% # Class of executed instruction
system.cpu0.op_class::IntDiv                        0      0.00%    100.00% # Class of executed instruction
system.cpu0.op_class::FloatAdd                      0      0.00%    100.00% # Class of executed instruction
system.cpu0.op_class::FloatCmp                      0      0.00%    100.00% # Class of executed instruction
system.cpu0.op_class::FloatCvt                      0      0.00%    100.00% # Class of executed instruction
system.cpu0.op_class::FloatMult                     0      0.00%    100.00% # Class of executed instruction
system.cpu0.op_class::FloatMultAcc                  0      0.00%    100.00% # Class of executed instruction
system.cpu0.op_class::FloatDiv                      0      0.00%    100.00% # Class of executed instruction
system.cpu0.op_class::FloatMisc                     0      0.00%    100.00% # Class of executed instruction
system.cpu0.op_class::FloatSqrt                     0      0.00%    100.00% # Class of executed instruction
system.cpu0.op_class::SimdAdd                       0      0.00%    100.00% # Class of executed instruction
system.cpu0.op_class::SimdAddAcc                    0      0.00%    100.00% # Class of executed instruction
system.cpu0.op_class::SimdAlu                       0      0.00%    100.00% # Class of executed instruction
system.cpu0.op_class::SimdCmp                       0      0.00%    100.00% # Class of executed instruction
system.cpu0.op_class::SimdCvt                       0      0.00%    100.00% # Class of executed instruction
system.cpu0.op_class::SimdMisc                      0      0.00%    100.00% # Class of executed instruction
system.cpu0.op_class::SimdMult                      0      0.00%    100.00% # Class of executed instruction
system.cpu0.op_class::SimdMultAcc                   0      0.00%    100.00% # Class of executed instruction
system.cpu0.op_class::SimdShift                     0      0.00%    100.00% # Class of executed instruction
system.cpu0.op_class::SimdShiftAcc                  0      0.00%    100.00% # Class of executed instruction
system.cpu0.op_class::SimdSqrt                      0      0.00%    100.00% # Class of executed instruction
system.cpu0.op_class::SimdFloatAdd                  0      0.00%    100.00% # Class of executed instruction
system.cpu0.op_class::SimdFloatAlu                  0      0.00%    100.00% # Class of executed instruction
system.cpu0.op_class::SimdFloatCmp                  0      0.00%    100.00% # Class of executed instruction
system.cpu0.op_class::SimdFloatCvt                  0      0.00%    100.00% # Class of executed instruction
system.cpu0.op_class::SimdFloatDiv                  0      0.00%    100.00% # Class of executed instruction
system.cpu0.op_class::SimdFloatMisc                 0      0.00%    100.00% # Class of executed instruction
system.cpu0.op_class::SimdFloatMult                 0      0.00%    100.00% # Class of executed instruction
system.cpu0.op_class::SimdFloatMultAcc              0      0.00%    100.00% # Class of executed instruction
system.cpu0.op_class::SimdFloatSqrt                 0      0.00%    100.00% # Class of executed instruction
system.cpu0.op_class::MemRead                       0      0.00%    100.00% # Class of executed instruction
system.cpu0.op_class::MemWrite                      0      0.00%    100.00% # Class of executed instruction
system.cpu0.op_class::FloatMemRead                  0      0.00%    100.00% # Class of executed instruction
system.cpu0.op_class::FloatMemWrite                 0      0.00%    100.00% # Class of executed instruction
system.cpu0.op_class::IprAccess                     0      0.00%    100.00% # Class of executed instruction
system.cpu0.op_class::InstPrefetch                  0      0.00%    100.00% # Class of executed instruction
system.cpu0.op_class::total                         1                       # Class of executed instruction
system.cpu0.dcache.tags.pwrStateResidencyTicks::UNDEFINED 709937917101                       # Cumulative time (in ticks) in various power states
system.cpu0.dcache.tags.replacements          4682529                       # number of replacements
system.cpu0.dcache.tags.tagsinuse                 512                       # Cycle average of tags in use
system.cpu0.dcache.tags.total_refs           46315283                       # Total number of references to valid blocks.
system.cpu0.dcache.tags.sampled_refs          4683041                       # Sample count of references to valid blocks.
system.cpu0.dcache.tags.avg_refs             9.890002                       # Average number of references to valid blocks.
system.cpu0.dcache.tags.warmup_cycle                0                       # Cycle when the warmup percentage was hit.
system.cpu0.dcache.tags.occ_blocks::cpu0.data     0.216529                       # Average occupied blocks per requestor
system.cpu0.dcache.tags.occ_blocks::switch_cpus0.data   511.783471                       # Average occupied blocks per requestor
system.cpu0.dcache.tags.occ_percent::cpu0.data     0.000423                       # Average percentage of cache occupancy
system.cpu0.dcache.tags.occ_percent::switch_cpus0.data     0.999577                       # Average percentage of cache occupancy
system.cpu0.dcache.tags.occ_percent::total            1                       # Average percentage of cache occupancy
system.cpu0.dcache.tags.occ_task_id_blocks::1024          512                       # Occupied blocks per task id
system.cpu0.dcache.tags.age_task_id_blocks_1024::0           95                       # Occupied blocks per task id
system.cpu0.dcache.tags.age_task_id_blocks_1024::2          416                       # Occupied blocks per task id
system.cpu0.dcache.tags.age_task_id_blocks_1024::3            1                       # Occupied blocks per task id
system.cpu0.dcache.tags.occ_task_id_percent::1024            1                       # Percentage of cache occupancy per task id
system.cpu0.dcache.tags.tag_accesses        515425145                       # Number of tag accesses
system.cpu0.dcache.tags.data_accesses       515425145                       # Number of data accesses
system.cpu0.dcache.pwrStateResidencyTicks::UNDEFINED 709937917101                       # Cumulative time (in ticks) in various power states
system.cpu0.dcache.ReadReq_hits::switch_cpus0.data     32212940                       # number of ReadReq hits
system.cpu0.dcache.ReadReq_hits::total       32212940                       # number of ReadReq hits
system.cpu0.dcache.WriteReq_hits::switch_cpus0.data     14074852                       # number of WriteReq hits
system.cpu0.dcache.WriteReq_hits::total      14074852                       # number of WriteReq hits
system.cpu0.dcache.demand_hits::switch_cpus0.data     46287792                       # number of demand (read+write) hits
system.cpu0.dcache.demand_hits::total        46287792                       # number of demand (read+write) hits
system.cpu0.dcache.overall_hits::switch_cpus0.data     46287792                       # number of overall hits
system.cpu0.dcache.overall_hits::total       46287792                       # number of overall hits
system.cpu0.dcache.ReadReq_misses::switch_cpus0.data     15906799                       # number of ReadReq misses
system.cpu0.dcache.ReadReq_misses::total     15906799                       # number of ReadReq misses
system.cpu0.dcache.WriteReq_misses::switch_cpus0.data      1648236                       # number of WriteReq misses
system.cpu0.dcache.WriteReq_misses::total      1648236                       # number of WriteReq misses
system.cpu0.dcache.demand_misses::switch_cpus0.data     17555035                       # number of demand (read+write) misses
system.cpu0.dcache.demand_misses::total      17555035                       # number of demand (read+write) misses
system.cpu0.dcache.overall_misses::switch_cpus0.data     17555035                       # number of overall misses
system.cpu0.dcache.overall_misses::total     17555035                       # number of overall misses
system.cpu0.dcache.ReadReq_miss_latency::switch_cpus0.data 686551273488                       # number of ReadReq miss cycles
system.cpu0.dcache.ReadReq_miss_latency::total 686551273488                       # number of ReadReq miss cycles
system.cpu0.dcache.WriteReq_miss_latency::switch_cpus0.data  70752925627                       # number of WriteReq miss cycles
system.cpu0.dcache.WriteReq_miss_latency::total  70752925627                       # number of WriteReq miss cycles
system.cpu0.dcache.demand_miss_latency::switch_cpus0.data 757304199115                       # number of demand (read+write) miss cycles
system.cpu0.dcache.demand_miss_latency::total 757304199115                       # number of demand (read+write) miss cycles
system.cpu0.dcache.overall_miss_latency::switch_cpus0.data 757304199115                       # number of overall miss cycles
system.cpu0.dcache.overall_miss_latency::total 757304199115                       # number of overall miss cycles
system.cpu0.dcache.ReadReq_accesses::switch_cpus0.data     48119739                       # number of ReadReq accesses(hits+misses)
system.cpu0.dcache.ReadReq_accesses::total     48119739                       # number of ReadReq accesses(hits+misses)
system.cpu0.dcache.WriteReq_accesses::switch_cpus0.data     15723088                       # number of WriteReq accesses(hits+misses)
system.cpu0.dcache.WriteReq_accesses::total     15723088                       # number of WriteReq accesses(hits+misses)
system.cpu0.dcache.demand_accesses::switch_cpus0.data     63842827                       # number of demand (read+write) accesses
system.cpu0.dcache.demand_accesses::total     63842827                       # number of demand (read+write) accesses
system.cpu0.dcache.overall_accesses::switch_cpus0.data     63842827                       # number of overall (read+write) accesses
system.cpu0.dcache.overall_accesses::total     63842827                       # number of overall (read+write) accesses
system.cpu0.dcache.ReadReq_miss_rate::switch_cpus0.data     0.330567                       # miss rate for ReadReq accesses
system.cpu0.dcache.ReadReq_miss_rate::total     0.330567                       # miss rate for ReadReq accesses
system.cpu0.dcache.WriteReq_miss_rate::switch_cpus0.data     0.104829                       # miss rate for WriteReq accesses
system.cpu0.dcache.WriteReq_miss_rate::total     0.104829                       # miss rate for WriteReq accesses
system.cpu0.dcache.demand_miss_rate::switch_cpus0.data     0.274973                       # miss rate for demand accesses
system.cpu0.dcache.demand_miss_rate::total     0.274973                       # miss rate for demand accesses
system.cpu0.dcache.overall_miss_rate::switch_cpus0.data     0.274973                       # miss rate for overall accesses
system.cpu0.dcache.overall_miss_rate::total     0.274973                       # miss rate for overall accesses
system.cpu0.dcache.ReadReq_avg_miss_latency::switch_cpus0.data 43160.869355                       # average ReadReq miss latency
system.cpu0.dcache.ReadReq_avg_miss_latency::total 43160.869355                       # average ReadReq miss latency
system.cpu0.dcache.WriteReq_avg_miss_latency::switch_cpus0.data 42926.453267                       # average WriteReq miss latency
system.cpu0.dcache.WriteReq_avg_miss_latency::total 42926.453267                       # average WriteReq miss latency
system.cpu0.dcache.demand_avg_miss_latency::switch_cpus0.data 43138.860111                       # average overall miss latency
system.cpu0.dcache.demand_avg_miss_latency::total 43138.860111                       # average overall miss latency
system.cpu0.dcache.overall_avg_miss_latency::switch_cpus0.data 43138.860111                       # average overall miss latency
system.cpu0.dcache.overall_avg_miss_latency::total 43138.860111                       # average overall miss latency
system.cpu0.dcache.blocked_cycles::no_mshrs     70617394                       # number of cycles access was blocked
system.cpu0.dcache.blocked_cycles::no_targets            0                       # number of cycles access was blocked
system.cpu0.dcache.blocked::no_mshrs           993232                       # number of cycles access was blocked
system.cpu0.dcache.blocked::no_targets              0                       # number of cycles access was blocked
system.cpu0.dcache.avg_blocked_cycles::no_mshrs    71.098589                       # average number of cycles each access was blocked
system.cpu0.dcache.avg_blocked_cycles::no_targets          nan                       # average number of cycles each access was blocked
system.cpu0.dcache.writebacks::writebacks      2209326                       # number of writebacks
system.cpu0.dcache.writebacks::total          2209326                       # number of writebacks
system.cpu0.dcache.ReadReq_mshr_hits::switch_cpus0.data     12871257                       # number of ReadReq MSHR hits
system.cpu0.dcache.ReadReq_mshr_hits::total     12871257                       # number of ReadReq MSHR hits
system.cpu0.dcache.WriteReq_mshr_hits::switch_cpus0.data           17                       # number of WriteReq MSHR hits
system.cpu0.dcache.WriteReq_mshr_hits::total           17                       # number of WriteReq MSHR hits
system.cpu0.dcache.demand_mshr_hits::switch_cpus0.data     12871274                       # number of demand (read+write) MSHR hits
system.cpu0.dcache.demand_mshr_hits::total     12871274                       # number of demand (read+write) MSHR hits
system.cpu0.dcache.overall_mshr_hits::switch_cpus0.data     12871274                       # number of overall MSHR hits
system.cpu0.dcache.overall_mshr_hits::total     12871274                       # number of overall MSHR hits
system.cpu0.dcache.ReadReq_mshr_misses::switch_cpus0.data      3035542                       # number of ReadReq MSHR misses
system.cpu0.dcache.ReadReq_mshr_misses::total      3035542                       # number of ReadReq MSHR misses
system.cpu0.dcache.WriteReq_mshr_misses::switch_cpus0.data      1648219                       # number of WriteReq MSHR misses
system.cpu0.dcache.WriteReq_mshr_misses::total      1648219                       # number of WriteReq MSHR misses
system.cpu0.dcache.demand_mshr_misses::switch_cpus0.data      4683761                       # number of demand (read+write) MSHR misses
system.cpu0.dcache.demand_mshr_misses::total      4683761                       # number of demand (read+write) MSHR misses
system.cpu0.dcache.overall_mshr_misses::switch_cpus0.data      4683761                       # number of overall MSHR misses
system.cpu0.dcache.overall_mshr_misses::total      4683761                       # number of overall MSHR misses
system.cpu0.dcache.ReadReq_mshr_miss_latency::switch_cpus0.data 174432014712                       # number of ReadReq MSHR miss cycles
system.cpu0.dcache.ReadReq_mshr_miss_latency::total 174432014712                       # number of ReadReq MSHR miss cycles
system.cpu0.dcache.WriteReq_mshr_miss_latency::switch_cpus0.data  69655034950                       # number of WriteReq MSHR miss cycles
system.cpu0.dcache.WriteReq_mshr_miss_latency::total  69655034950                       # number of WriteReq MSHR miss cycles
system.cpu0.dcache.demand_mshr_miss_latency::switch_cpus0.data 244087049662                       # number of demand (read+write) MSHR miss cycles
system.cpu0.dcache.demand_mshr_miss_latency::total 244087049662                       # number of demand (read+write) MSHR miss cycles
system.cpu0.dcache.overall_mshr_miss_latency::switch_cpus0.data 244087049662                       # number of overall MSHR miss cycles
system.cpu0.dcache.overall_mshr_miss_latency::total 244087049662                       # number of overall MSHR miss cycles
system.cpu0.dcache.ReadReq_mshr_miss_rate::switch_cpus0.data     0.063083                       # mshr miss rate for ReadReq accesses
system.cpu0.dcache.ReadReq_mshr_miss_rate::total     0.063083                       # mshr miss rate for ReadReq accesses
system.cpu0.dcache.WriteReq_mshr_miss_rate::switch_cpus0.data     0.104828                       # mshr miss rate for WriteReq accesses
system.cpu0.dcache.WriteReq_mshr_miss_rate::total     0.104828                       # mshr miss rate for WriteReq accesses
system.cpu0.dcache.demand_mshr_miss_rate::switch_cpus0.data     0.073364                       # mshr miss rate for demand accesses
system.cpu0.dcache.demand_mshr_miss_rate::total     0.073364                       # mshr miss rate for demand accesses
system.cpu0.dcache.overall_mshr_miss_rate::switch_cpus0.data     0.073364                       # mshr miss rate for overall accesses
system.cpu0.dcache.overall_mshr_miss_rate::total     0.073364                       # mshr miss rate for overall accesses
system.cpu0.dcache.ReadReq_avg_mshr_miss_latency::switch_cpus0.data 57463.218994                       # average ReadReq mshr miss latency
system.cpu0.dcache.ReadReq_avg_mshr_miss_latency::total 57463.218994                       # average ReadReq mshr miss latency
system.cpu0.dcache.WriteReq_avg_mshr_miss_latency::switch_cpus0.data 42260.788736                       # average WriteReq mshr miss latency
system.cpu0.dcache.WriteReq_avg_mshr_miss_latency::total 42260.788736                       # average WriteReq mshr miss latency
system.cpu0.dcache.demand_avg_mshr_miss_latency::switch_cpus0.data 52113.472413                       # average overall mshr miss latency
system.cpu0.dcache.demand_avg_mshr_miss_latency::total 52113.472413                       # average overall mshr miss latency
system.cpu0.dcache.overall_avg_mshr_miss_latency::switch_cpus0.data 52113.472413                       # average overall mshr miss latency
system.cpu0.dcache.overall_avg_mshr_miss_latency::total 52113.472413                       # average overall mshr miss latency
system.cpu0.dtb_walker_cache.tags.pwrStateResidencyTicks::UNDEFINED 709937917101                       # Cumulative time (in ticks) in various power states
system.cpu0.dtb_walker_cache.tags.replacements            0                       # number of replacements
system.cpu0.dtb_walker_cache.tags.tagsinuse            0                       # Cycle average of tags in use
system.cpu0.dtb_walker_cache.tags.total_refs            0                       # Total number of references to valid blocks.
system.cpu0.dtb_walker_cache.tags.sampled_refs            0                       # Sample count of references to valid blocks.
system.cpu0.dtb_walker_cache.tags.avg_refs          nan                       # Average number of references to valid blocks.
system.cpu0.dtb_walker_cache.tags.warmup_cycle            0                       # Cycle when the warmup percentage was hit.
system.cpu0.dtb_walker_cache.tags.tag_accesses            0                       # Number of tag accesses
system.cpu0.dtb_walker_cache.tags.data_accesses            0                       # Number of data accesses
system.cpu0.dtb_walker_cache.pwrStateResidencyTicks::UNDEFINED 709937917101                       # Cumulative time (in ticks) in various power states
system.cpu0.dtb_walker_cache.blocked_cycles::no_mshrs            0                       # number of cycles access was blocked
system.cpu0.dtb_walker_cache.blocked_cycles::no_targets            0                       # number of cycles access was blocked
system.cpu0.dtb_walker_cache.blocked::no_mshrs            0                       # number of cycles access was blocked
system.cpu0.dtb_walker_cache.blocked::no_targets            0                       # number of cycles access was blocked
system.cpu0.dtb_walker_cache.avg_blocked_cycles::no_mshrs          nan                       # average number of cycles each access was blocked
system.cpu0.dtb_walker_cache.avg_blocked_cycles::no_targets          nan                       # average number of cycles each access was blocked
system.cpu0.icache.tags.pwrStateResidencyTicks::UNDEFINED 709937917101                       # Cumulative time (in ticks) in various power states
system.cpu0.icache.tags.replacements              100                       # number of replacements
system.cpu0.icache.tags.tagsinuse          511.708566                       # Cycle average of tags in use
system.cpu0.icache.tags.total_refs         1430421576                       # Total number of references to valid blocks.
system.cpu0.icache.tags.sampled_refs              611                       # Sample count of references to valid blocks.
system.cpu0.icache.tags.avg_refs         2341115.509002                       # Average number of references to valid blocks.
system.cpu0.icache.tags.warmup_cycle                0                       # Cycle when the warmup percentage was hit.
system.cpu0.icache.tags.occ_blocks::cpu0.inst   427.035556                       # Average occupied blocks per requestor
system.cpu0.icache.tags.occ_blocks::switch_cpus0.inst    84.673010                       # Average occupied blocks per requestor
system.cpu0.icache.tags.occ_percent::cpu0.inst     0.834054                       # Average percentage of cache occupancy
system.cpu0.icache.tags.occ_percent::switch_cpus0.inst     0.165377                       # Average percentage of cache occupancy
system.cpu0.icache.tags.occ_percent::total     0.999431                       # Average percentage of cache occupancy
system.cpu0.icache.tags.occ_task_id_blocks::1024          511                       # Occupied blocks per task id
system.cpu0.icache.tags.age_task_id_blocks_1024::3            1                       # Occupied blocks per task id
system.cpu0.icache.tags.age_task_id_blocks_1024::4          510                       # Occupied blocks per task id
system.cpu0.icache.tags.occ_task_id_percent::1024     0.998047                       # Percentage of cache occupancy per task id
system.cpu0.icache.tags.tag_accesses        145264604                       # Number of tag accesses
system.cpu0.icache.tags.data_accesses       145264604                       # Number of data accesses
system.cpu0.icache.pwrStateResidencyTicks::UNDEFINED 709937917101                       # Cumulative time (in ticks) in various power states
system.cpu0.icache.ReadReq_hits::switch_cpus0.inst     18157930                       # number of ReadReq hits
system.cpu0.icache.ReadReq_hits::total       18157930                       # number of ReadReq hits
system.cpu0.icache.demand_hits::switch_cpus0.inst     18157930                       # number of demand (read+write) hits
system.cpu0.icache.demand_hits::total        18157930                       # number of demand (read+write) hits
system.cpu0.icache.overall_hits::switch_cpus0.inst     18157930                       # number of overall hits
system.cpu0.icache.overall_hits::total       18157930                       # number of overall hits
system.cpu0.icache.ReadReq_misses::switch_cpus0.inst          133                       # number of ReadReq misses
system.cpu0.icache.ReadReq_misses::total          133                       # number of ReadReq misses
system.cpu0.icache.demand_misses::switch_cpus0.inst          133                       # number of demand (read+write) misses
system.cpu0.icache.demand_misses::total           133                       # number of demand (read+write) misses
system.cpu0.icache.overall_misses::switch_cpus0.inst          133                       # number of overall misses
system.cpu0.icache.overall_misses::total          133                       # number of overall misses
system.cpu0.icache.ReadReq_miss_latency::switch_cpus0.inst     13738581                       # number of ReadReq miss cycles
system.cpu0.icache.ReadReq_miss_latency::total     13738581                       # number of ReadReq miss cycles
system.cpu0.icache.demand_miss_latency::switch_cpus0.inst     13738581                       # number of demand (read+write) miss cycles
system.cpu0.icache.demand_miss_latency::total     13738581                       # number of demand (read+write) miss cycles
system.cpu0.icache.overall_miss_latency::switch_cpus0.inst     13738581                       # number of overall miss cycles
system.cpu0.icache.overall_miss_latency::total     13738581                       # number of overall miss cycles
system.cpu0.icache.ReadReq_accesses::switch_cpus0.inst     18158063                       # number of ReadReq accesses(hits+misses)
system.cpu0.icache.ReadReq_accesses::total     18158063                       # number of ReadReq accesses(hits+misses)
system.cpu0.icache.demand_accesses::switch_cpus0.inst     18158063                       # number of demand (read+write) accesses
system.cpu0.icache.demand_accesses::total     18158063                       # number of demand (read+write) accesses
system.cpu0.icache.overall_accesses::switch_cpus0.inst     18158063                       # number of overall (read+write) accesses
system.cpu0.icache.overall_accesses::total     18158063                       # number of overall (read+write) accesses
system.cpu0.icache.ReadReq_miss_rate::switch_cpus0.inst     0.000007                       # miss rate for ReadReq accesses
system.cpu0.icache.ReadReq_miss_rate::total     0.000007                       # miss rate for ReadReq accesses
system.cpu0.icache.demand_miss_rate::switch_cpus0.inst     0.000007                       # miss rate for demand accesses
system.cpu0.icache.demand_miss_rate::total     0.000007                       # miss rate for demand accesses
system.cpu0.icache.overall_miss_rate::switch_cpus0.inst     0.000007                       # miss rate for overall accesses
system.cpu0.icache.overall_miss_rate::total     0.000007                       # miss rate for overall accesses
system.cpu0.icache.ReadReq_avg_miss_latency::switch_cpus0.inst 103297.601504                       # average ReadReq miss latency
system.cpu0.icache.ReadReq_avg_miss_latency::total 103297.601504                       # average ReadReq miss latency
system.cpu0.icache.demand_avg_miss_latency::switch_cpus0.inst 103297.601504                       # average overall miss latency
system.cpu0.icache.demand_avg_miss_latency::total 103297.601504                       # average overall miss latency
system.cpu0.icache.overall_avg_miss_latency::switch_cpus0.inst 103297.601504                       # average overall miss latency
system.cpu0.icache.overall_avg_miss_latency::total 103297.601504                       # average overall miss latency
system.cpu0.icache.blocked_cycles::no_mshrs          959                       # number of cycles access was blocked
system.cpu0.icache.blocked_cycles::no_targets            0                       # number of cycles access was blocked
system.cpu0.icache.blocked::no_mshrs               11                       # number of cycles access was blocked
system.cpu0.icache.blocked::no_targets              0                       # number of cycles access was blocked
system.cpu0.icache.avg_blocked_cycles::no_mshrs    87.181818                       # average number of cycles each access was blocked
system.cpu0.icache.avg_blocked_cycles::no_targets          nan                       # average number of cycles each access was blocked
system.cpu0.icache.writebacks::writebacks          100                       # number of writebacks
system.cpu0.icache.writebacks::total              100                       # number of writebacks
system.cpu0.icache.ReadReq_mshr_hits::switch_cpus0.inst           33                       # number of ReadReq MSHR hits
system.cpu0.icache.ReadReq_mshr_hits::total           33                       # number of ReadReq MSHR hits
system.cpu0.icache.demand_mshr_hits::switch_cpus0.inst           33                       # number of demand (read+write) MSHR hits
system.cpu0.icache.demand_mshr_hits::total           33                       # number of demand (read+write) MSHR hits
system.cpu0.icache.overall_mshr_hits::switch_cpus0.inst           33                       # number of overall MSHR hits
system.cpu0.icache.overall_mshr_hits::total           33                       # number of overall MSHR hits
system.cpu0.icache.ReadReq_mshr_misses::switch_cpus0.inst          100                       # number of ReadReq MSHR misses
system.cpu0.icache.ReadReq_mshr_misses::total          100                       # number of ReadReq MSHR misses
system.cpu0.icache.demand_mshr_misses::switch_cpus0.inst          100                       # number of demand (read+write) MSHR misses
system.cpu0.icache.demand_mshr_misses::total          100                       # number of demand (read+write) MSHR misses
system.cpu0.icache.overall_mshr_misses::switch_cpus0.inst          100                       # number of overall MSHR misses
system.cpu0.icache.overall_mshr_misses::total          100                       # number of overall MSHR misses
system.cpu0.icache.ReadReq_mshr_miss_latency::switch_cpus0.inst     11606049                       # number of ReadReq MSHR miss cycles
system.cpu0.icache.ReadReq_mshr_miss_latency::total     11606049                       # number of ReadReq MSHR miss cycles
system.cpu0.icache.demand_mshr_miss_latency::switch_cpus0.inst     11606049                       # number of demand (read+write) MSHR miss cycles
system.cpu0.icache.demand_mshr_miss_latency::total     11606049                       # number of demand (read+write) MSHR miss cycles
system.cpu0.icache.overall_mshr_miss_latency::switch_cpus0.inst     11606049                       # number of overall MSHR miss cycles
system.cpu0.icache.overall_mshr_miss_latency::total     11606049                       # number of overall MSHR miss cycles
system.cpu0.icache.ReadReq_mshr_miss_rate::switch_cpus0.inst     0.000006                       # mshr miss rate for ReadReq accesses
system.cpu0.icache.ReadReq_mshr_miss_rate::total     0.000006                       # mshr miss rate for ReadReq accesses
system.cpu0.icache.demand_mshr_miss_rate::switch_cpus0.inst     0.000006                       # mshr miss rate for demand accesses
system.cpu0.icache.demand_mshr_miss_rate::total     0.000006                       # mshr miss rate for demand accesses
system.cpu0.icache.overall_mshr_miss_rate::switch_cpus0.inst     0.000006                       # mshr miss rate for overall accesses
system.cpu0.icache.overall_mshr_miss_rate::total     0.000006                       # mshr miss rate for overall accesses
system.cpu0.icache.ReadReq_avg_mshr_miss_latency::switch_cpus0.inst 116060.490000                       # average ReadReq mshr miss latency
system.cpu0.icache.ReadReq_avg_mshr_miss_latency::total 116060.490000                       # average ReadReq mshr miss latency
system.cpu0.icache.demand_avg_mshr_miss_latency::switch_cpus0.inst 116060.490000                       # average overall mshr miss latency
system.cpu0.icache.demand_avg_mshr_miss_latency::total 116060.490000                       # average overall mshr miss latency
system.cpu0.icache.overall_avg_mshr_miss_latency::switch_cpus0.inst 116060.490000                       # average overall mshr miss latency
system.cpu0.icache.overall_avg_mshr_miss_latency::total 116060.490000                       # average overall mshr miss latency
system.cpu0.itb_walker_cache.tags.pwrStateResidencyTicks::UNDEFINED 709937917101                       # Cumulative time (in ticks) in various power states
system.cpu0.itb_walker_cache.tags.replacements            0                       # number of replacements
system.cpu0.itb_walker_cache.tags.tagsinuse            0                       # Cycle average of tags in use
system.cpu0.itb_walker_cache.tags.total_refs            0                       # Total number of references to valid blocks.
system.cpu0.itb_walker_cache.tags.sampled_refs            0                       # Sample count of references to valid blocks.
system.cpu0.itb_walker_cache.tags.avg_refs          nan                       # Average number of references to valid blocks.
system.cpu0.itb_walker_cache.tags.warmup_cycle            0                       # Cycle when the warmup percentage was hit.
system.cpu0.itb_walker_cache.tags.tag_accesses            0                       # Number of tag accesses
system.cpu0.itb_walker_cache.tags.data_accesses            0                       # Number of data accesses
system.cpu0.itb_walker_cache.pwrStateResidencyTicks::UNDEFINED 709937917101                       # Cumulative time (in ticks) in various power states
system.cpu0.itb_walker_cache.blocked_cycles::no_mshrs            0                       # number of cycles access was blocked
system.cpu0.itb_walker_cache.blocked_cycles::no_targets            0                       # number of cycles access was blocked
system.cpu0.itb_walker_cache.blocked::no_mshrs            0                       # number of cycles access was blocked
system.cpu0.itb_walker_cache.blocked::no_targets            0                       # number of cycles access was blocked
system.cpu0.itb_walker_cache.avg_blocked_cycles::no_mshrs          nan                       # average number of cycles each access was blocked
system.cpu0.itb_walker_cache.avg_blocked_cycles::no_targets          nan                       # average number of cycles each access was blocked
system.cpu0.l2cache.tags.pwrStateResidencyTicks::UNDEFINED 709937917101                       # Cumulative time (in ticks) in various power states
system.cpu0.l2cache.tags.replacements         4218309                       # number of replacements
system.cpu0.l2cache.tags.tagsinuse               4096                       # Cycle average of tags in use
system.cpu0.l2cache.tags.total_refs           5153079                       # Total number of references to valid blocks.
system.cpu0.l2cache.tags.sampled_refs         4222405                       # Sample count of references to valid blocks.
system.cpu0.l2cache.tags.avg_refs            1.220413                       # Average number of references to valid blocks.
system.cpu0.l2cache.tags.warmup_cycle               0                       # Cycle when the warmup percentage was hit.
system.cpu0.l2cache.tags.occ_blocks::writebacks     0.308833                       # Average occupied blocks per requestor
system.cpu0.l2cache.tags.occ_blocks::cpu0.data    15.869721                       # Average occupied blocks per requestor
system.cpu0.l2cache.tags.occ_blocks::switch_cpus0.inst     0.197495                       # Average occupied blocks per requestor
system.cpu0.l2cache.tags.occ_blocks::switch_cpus0.data  4079.623950                       # Average occupied blocks per requestor
system.cpu0.l2cache.tags.occ_percent::writebacks     0.000075                       # Average percentage of cache occupancy
system.cpu0.l2cache.tags.occ_percent::cpu0.data     0.003874                       # Average percentage of cache occupancy
system.cpu0.l2cache.tags.occ_percent::switch_cpus0.inst     0.000048                       # Average percentage of cache occupancy
system.cpu0.l2cache.tags.occ_percent::switch_cpus0.data     0.996002                       # Average percentage of cache occupancy
system.cpu0.l2cache.tags.occ_percent::total            1                       # Average percentage of cache occupancy
system.cpu0.l2cache.tags.occ_task_id_blocks::1024         4096                       # Occupied blocks per task id
system.cpu0.l2cache.tags.age_task_id_blocks_1024::0          370                       # Occupied blocks per task id
system.cpu0.l2cache.tags.age_task_id_blocks_1024::1          398                       # Occupied blocks per task id
system.cpu0.l2cache.tags.age_task_id_blocks_1024::2         3212                       # Occupied blocks per task id
system.cpu0.l2cache.tags.age_task_id_blocks_1024::3          116                       # Occupied blocks per task id
system.cpu0.l2cache.tags.occ_task_id_percent::1024            1                       # Percentage of cache occupancy per task id
system.cpu0.l2cache.tags.tag_accesses        41684261                       # Number of tag accesses
system.cpu0.l2cache.tags.data_accesses       41684261                       # Number of data accesses
system.cpu0.l2cache.pwrStateResidencyTicks::UNDEFINED 709937917101                       # Cumulative time (in ticks) in various power states
system.cpu0.l2cache.WritebackDirty_hits::writebacks      2209326                       # number of WritebackDirty hits
system.cpu0.l2cache.WritebackDirty_hits::total      2209326                       # number of WritebackDirty hits
system.cpu0.l2cache.WritebackClean_hits::writebacks          100                       # number of WritebackClean hits
system.cpu0.l2cache.WritebackClean_hits::total          100                       # number of WritebackClean hits
system.cpu0.l2cache.UpgradeReq_hits::switch_cpus0.data         1217                       # number of UpgradeReq hits
system.cpu0.l2cache.UpgradeReq_hits::total         1217                       # number of UpgradeReq hits
system.cpu0.l2cache.ReadExReq_hits::switch_cpus0.data       180345                       # number of ReadExReq hits
system.cpu0.l2cache.ReadExReq_hits::total       180345                       # number of ReadExReq hits
system.cpu0.l2cache.ReadSharedReq_hits::switch_cpus0.data       284142                       # number of ReadSharedReq hits
system.cpu0.l2cache.ReadSharedReq_hits::total       284142                       # number of ReadSharedReq hits
system.cpu0.l2cache.demand_hits::switch_cpus0.data       464487                       # number of demand (read+write) hits
system.cpu0.l2cache.demand_hits::total         464487                       # number of demand (read+write) hits
system.cpu0.l2cache.overall_hits::switch_cpus0.data       464487                       # number of overall hits
system.cpu0.l2cache.overall_hits::total        464487                       # number of overall hits
system.cpu0.l2cache.UpgradeReq_misses::switch_cpus0.data           21                       # number of UpgradeReq misses
system.cpu0.l2cache.UpgradeReq_misses::total           21                       # number of UpgradeReq misses
system.cpu0.l2cache.ReadExReq_misses::switch_cpus0.data      1466645                       # number of ReadExReq misses
system.cpu0.l2cache.ReadExReq_misses::total      1466645                       # number of ReadExReq misses
system.cpu0.l2cache.ReadCleanReq_misses::switch_cpus0.inst          100                       # number of ReadCleanReq misses
system.cpu0.l2cache.ReadCleanReq_misses::total          100                       # number of ReadCleanReq misses
system.cpu0.l2cache.ReadSharedReq_misses::switch_cpus0.data      2751399                       # number of ReadSharedReq misses
system.cpu0.l2cache.ReadSharedReq_misses::total      2751399                       # number of ReadSharedReq misses
system.cpu0.l2cache.demand_misses::switch_cpus0.inst          100                       # number of demand (read+write) misses
system.cpu0.l2cache.demand_misses::switch_cpus0.data      4218044                       # number of demand (read+write) misses
system.cpu0.l2cache.demand_misses::total      4218144                       # number of demand (read+write) misses
system.cpu0.l2cache.overall_misses::switch_cpus0.inst          100                       # number of overall misses
system.cpu0.l2cache.overall_misses::switch_cpus0.data      4218044                       # number of overall misses
system.cpu0.l2cache.overall_misses::total      4218144                       # number of overall misses
system.cpu0.l2cache.UpgradeReq_miss_latency::switch_cpus0.data        17649                       # number of UpgradeReq miss cycles
system.cpu0.l2cache.UpgradeReq_miss_latency::total        17649                       # number of UpgradeReq miss cycles
system.cpu0.l2cache.ReadExReq_miss_latency::switch_cpus0.data  67445249415                       # number of ReadExReq miss cycles
system.cpu0.l2cache.ReadExReq_miss_latency::total  67445249415                       # number of ReadExReq miss cycles
system.cpu0.l2cache.ReadCleanReq_miss_latency::switch_cpus0.inst     11502819                       # number of ReadCleanReq miss cycles
system.cpu0.l2cache.ReadCleanReq_miss_latency::total     11502819                       # number of ReadCleanReq miss cycles
system.cpu0.l2cache.ReadSharedReq_miss_latency::switch_cpus0.data 170421815267                       # number of ReadSharedReq miss cycles
system.cpu0.l2cache.ReadSharedReq_miss_latency::total 170421815267                       # number of ReadSharedReq miss cycles
system.cpu0.l2cache.demand_miss_latency::switch_cpus0.inst     11502819                       # number of demand (read+write) miss cycles
system.cpu0.l2cache.demand_miss_latency::switch_cpus0.data 237867064682                       # number of demand (read+write) miss cycles
system.cpu0.l2cache.demand_miss_latency::total 237878567501                       # number of demand (read+write) miss cycles
system.cpu0.l2cache.overall_miss_latency::switch_cpus0.inst     11502819                       # number of overall miss cycles
system.cpu0.l2cache.overall_miss_latency::switch_cpus0.data 237867064682                       # number of overall miss cycles
system.cpu0.l2cache.overall_miss_latency::total 237878567501                       # number of overall miss cycles
system.cpu0.l2cache.WritebackDirty_accesses::writebacks      2209326                       # number of WritebackDirty accesses(hits+misses)
system.cpu0.l2cache.WritebackDirty_accesses::total      2209326                       # number of WritebackDirty accesses(hits+misses)
system.cpu0.l2cache.WritebackClean_accesses::writebacks          100                       # number of WritebackClean accesses(hits+misses)
system.cpu0.l2cache.WritebackClean_accesses::total          100                       # number of WritebackClean accesses(hits+misses)
system.cpu0.l2cache.UpgradeReq_accesses::switch_cpus0.data         1238                       # number of UpgradeReq accesses(hits+misses)
system.cpu0.l2cache.UpgradeReq_accesses::total         1238                       # number of UpgradeReq accesses(hits+misses)
system.cpu0.l2cache.ReadExReq_accesses::switch_cpus0.data      1646990                       # number of ReadExReq accesses(hits+misses)
system.cpu0.l2cache.ReadExReq_accesses::total      1646990                       # number of ReadExReq accesses(hits+misses)
system.cpu0.l2cache.ReadCleanReq_accesses::switch_cpus0.inst          100                       # number of ReadCleanReq accesses(hits+misses)
system.cpu0.l2cache.ReadCleanReq_accesses::total          100                       # number of ReadCleanReq accesses(hits+misses)
system.cpu0.l2cache.ReadSharedReq_accesses::switch_cpus0.data      3035541                       # number of ReadSharedReq accesses(hits+misses)
system.cpu0.l2cache.ReadSharedReq_accesses::total      3035541                       # number of ReadSharedReq accesses(hits+misses)
system.cpu0.l2cache.demand_accesses::switch_cpus0.inst          100                       # number of demand (read+write) accesses
system.cpu0.l2cache.demand_accesses::switch_cpus0.data      4682531                       # number of demand (read+write) accesses
system.cpu0.l2cache.demand_accesses::total      4682631                       # number of demand (read+write) accesses
system.cpu0.l2cache.overall_accesses::switch_cpus0.inst          100                       # number of overall (read+write) accesses
system.cpu0.l2cache.overall_accesses::switch_cpus0.data      4682531                       # number of overall (read+write) accesses
system.cpu0.l2cache.overall_accesses::total      4682631                       # number of overall (read+write) accesses
system.cpu0.l2cache.UpgradeReq_miss_rate::switch_cpus0.data     0.016963                       # miss rate for UpgradeReq accesses
system.cpu0.l2cache.UpgradeReq_miss_rate::total     0.016963                       # miss rate for UpgradeReq accesses
system.cpu0.l2cache.ReadExReq_miss_rate::switch_cpus0.data     0.890500                       # miss rate for ReadExReq accesses
system.cpu0.l2cache.ReadExReq_miss_rate::total     0.890500                       # miss rate for ReadExReq accesses
system.cpu0.l2cache.ReadCleanReq_miss_rate::switch_cpus0.inst            1                       # miss rate for ReadCleanReq accesses
system.cpu0.l2cache.ReadCleanReq_miss_rate::total            1                       # miss rate for ReadCleanReq accesses
system.cpu0.l2cache.ReadSharedReq_miss_rate::switch_cpus0.data     0.906395                       # miss rate for ReadSharedReq accesses
system.cpu0.l2cache.ReadSharedReq_miss_rate::total     0.906395                       # miss rate for ReadSharedReq accesses
system.cpu0.l2cache.demand_miss_rate::switch_cpus0.inst            1                       # miss rate for demand accesses
system.cpu0.l2cache.demand_miss_rate::switch_cpus0.data     0.900804                       # miss rate for demand accesses
system.cpu0.l2cache.demand_miss_rate::total     0.900806                       # miss rate for demand accesses
system.cpu0.l2cache.overall_miss_rate::switch_cpus0.inst            1                       # miss rate for overall accesses
system.cpu0.l2cache.overall_miss_rate::switch_cpus0.data     0.900804                       # miss rate for overall accesses
system.cpu0.l2cache.overall_miss_rate::total     0.900806                       # miss rate for overall accesses
system.cpu0.l2cache.UpgradeReq_avg_miss_latency::switch_cpus0.data   840.428571                       # average UpgradeReq miss latency
system.cpu0.l2cache.UpgradeReq_avg_miss_latency::total   840.428571                       # average UpgradeReq miss latency
system.cpu0.l2cache.ReadExReq_avg_miss_latency::switch_cpus0.data 45986.076668                       # average ReadExReq miss latency
system.cpu0.l2cache.ReadExReq_avg_miss_latency::total 45986.076668                       # average ReadExReq miss latency
system.cpu0.l2cache.ReadCleanReq_avg_miss_latency::switch_cpus0.inst 115028.190000                       # average ReadCleanReq miss latency
system.cpu0.l2cache.ReadCleanReq_avg_miss_latency::total 115028.190000                       # average ReadCleanReq miss latency
system.cpu0.l2cache.ReadSharedReq_avg_miss_latency::switch_cpus0.data 61940.058591                       # average ReadSharedReq miss latency
system.cpu0.l2cache.ReadSharedReq_avg_miss_latency::total 61940.058591                       # average ReadSharedReq miss latency
system.cpu0.l2cache.demand_avg_miss_latency::switch_cpus0.inst 115028.190000                       # average overall miss latency
system.cpu0.l2cache.demand_avg_miss_latency::switch_cpus0.data 56392.741442                       # average overall miss latency
system.cpu0.l2cache.demand_avg_miss_latency::total 56394.131519                       # average overall miss latency
system.cpu0.l2cache.overall_avg_miss_latency::switch_cpus0.inst 115028.190000                       # average overall miss latency
system.cpu0.l2cache.overall_avg_miss_latency::switch_cpus0.data 56392.741442                       # average overall miss latency
system.cpu0.l2cache.overall_avg_miss_latency::total 56394.131519                       # average overall miss latency
system.cpu0.l2cache.blocked_cycles::no_mshrs            0                       # number of cycles access was blocked
system.cpu0.l2cache.blocked_cycles::no_targets            0                       # number of cycles access was blocked
system.cpu0.l2cache.blocked::no_mshrs               0                       # number of cycles access was blocked
system.cpu0.l2cache.blocked::no_targets             0                       # number of cycles access was blocked
system.cpu0.l2cache.avg_blocked_cycles::no_mshrs          nan                       # average number of cycles each access was blocked
system.cpu0.l2cache.avg_blocked_cycles::no_targets          nan                       # average number of cycles each access was blocked
system.cpu0.l2cache.writebacks::writebacks      2067396                       # number of writebacks
system.cpu0.l2cache.writebacks::total         2067396                       # number of writebacks
system.cpu0.l2cache.CleanEvict_mshr_misses::writebacks          198                       # number of CleanEvict MSHR misses
system.cpu0.l2cache.CleanEvict_mshr_misses::total          198                       # number of CleanEvict MSHR misses
system.cpu0.l2cache.UpgradeReq_mshr_misses::switch_cpus0.data           21                       # number of UpgradeReq MSHR misses
system.cpu0.l2cache.UpgradeReq_mshr_misses::total           21                       # number of UpgradeReq MSHR misses
system.cpu0.l2cache.ReadExReq_mshr_misses::switch_cpus0.data      1466645                       # number of ReadExReq MSHR misses
system.cpu0.l2cache.ReadExReq_mshr_misses::total      1466645                       # number of ReadExReq MSHR misses
system.cpu0.l2cache.ReadCleanReq_mshr_misses::switch_cpus0.inst          100                       # number of ReadCleanReq MSHR misses
system.cpu0.l2cache.ReadCleanReq_mshr_misses::total          100                       # number of ReadCleanReq MSHR misses
system.cpu0.l2cache.ReadSharedReq_mshr_misses::switch_cpus0.data      2751399                       # number of ReadSharedReq MSHR misses
system.cpu0.l2cache.ReadSharedReq_mshr_misses::total      2751399                       # number of ReadSharedReq MSHR misses
system.cpu0.l2cache.demand_mshr_misses::switch_cpus0.inst          100                       # number of demand (read+write) MSHR misses
system.cpu0.l2cache.demand_mshr_misses::switch_cpus0.data      4218044                       # number of demand (read+write) MSHR misses
system.cpu0.l2cache.demand_mshr_misses::total      4218144                       # number of demand (read+write) MSHR misses
system.cpu0.l2cache.overall_mshr_misses::switch_cpus0.inst          100                       # number of overall MSHR misses
system.cpu0.l2cache.overall_mshr_misses::switch_cpus0.data      4218044                       # number of overall MSHR misses
system.cpu0.l2cache.overall_mshr_misses::total      4218144                       # number of overall MSHR misses
system.cpu0.l2cache.UpgradeReq_mshr_miss_latency::switch_cpus0.data       293063                       # number of UpgradeReq MSHR miss cycles
system.cpu0.l2cache.UpgradeReq_mshr_miss_latency::total       293063                       # number of UpgradeReq MSHR miss cycles
system.cpu0.l2cache.ReadExReq_mshr_miss_latency::switch_cpus0.data  63294594660                       # number of ReadExReq MSHR miss cycles
system.cpu0.l2cache.ReadExReq_mshr_miss_latency::total  63294594660                       # number of ReadExReq MSHR miss cycles
system.cpu0.l2cache.ReadCleanReq_mshr_miss_latency::switch_cpus0.inst     11220437                       # number of ReadCleanReq MSHR miss cycles
system.cpu0.l2cache.ReadCleanReq_mshr_miss_latency::total     11220437                       # number of ReadCleanReq MSHR miss cycles
system.cpu0.l2cache.ReadSharedReq_mshr_miss_latency::switch_cpus0.data 162635231134                       # number of ReadSharedReq MSHR miss cycles
system.cpu0.l2cache.ReadSharedReq_mshr_miss_latency::total 162635231134                       # number of ReadSharedReq MSHR miss cycles
system.cpu0.l2cache.demand_mshr_miss_latency::switch_cpus0.inst     11220437                       # number of demand (read+write) MSHR miss cycles
system.cpu0.l2cache.demand_mshr_miss_latency::switch_cpus0.data 225929825794                       # number of demand (read+write) MSHR miss cycles
system.cpu0.l2cache.demand_mshr_miss_latency::total 225941046231                       # number of demand (read+write) MSHR miss cycles
system.cpu0.l2cache.overall_mshr_miss_latency::switch_cpus0.inst     11220437                       # number of overall MSHR miss cycles
system.cpu0.l2cache.overall_mshr_miss_latency::switch_cpus0.data 225929825794                       # number of overall MSHR miss cycles
system.cpu0.l2cache.overall_mshr_miss_latency::total 225941046231                       # number of overall MSHR miss cycles
system.cpu0.l2cache.CleanEvict_mshr_miss_rate::writebacks          inf                       # mshr miss rate for CleanEvict accesses
system.cpu0.l2cache.CleanEvict_mshr_miss_rate::total          inf                       # mshr miss rate for CleanEvict accesses
system.cpu0.l2cache.UpgradeReq_mshr_miss_rate::switch_cpus0.data     0.016963                       # mshr miss rate for UpgradeReq accesses
system.cpu0.l2cache.UpgradeReq_mshr_miss_rate::total     0.016963                       # mshr miss rate for UpgradeReq accesses
system.cpu0.l2cache.ReadExReq_mshr_miss_rate::switch_cpus0.data     0.890500                       # mshr miss rate for ReadExReq accesses
system.cpu0.l2cache.ReadExReq_mshr_miss_rate::total     0.890500                       # mshr miss rate for ReadExReq accesses
system.cpu0.l2cache.ReadCleanReq_mshr_miss_rate::switch_cpus0.inst            1                       # mshr miss rate for ReadCleanReq accesses
system.cpu0.l2cache.ReadCleanReq_mshr_miss_rate::total            1                       # mshr miss rate for ReadCleanReq accesses
system.cpu0.l2cache.ReadSharedReq_mshr_miss_rate::switch_cpus0.data     0.906395                       # mshr miss rate for ReadSharedReq accesses
system.cpu0.l2cache.ReadSharedReq_mshr_miss_rate::total     0.906395                       # mshr miss rate for ReadSharedReq accesses
system.cpu0.l2cache.demand_mshr_miss_rate::switch_cpus0.inst            1                       # mshr miss rate for demand accesses
system.cpu0.l2cache.demand_mshr_miss_rate::switch_cpus0.data     0.900804                       # mshr miss rate for demand accesses
system.cpu0.l2cache.demand_mshr_miss_rate::total     0.900806                       # mshr miss rate for demand accesses
system.cpu0.l2cache.overall_mshr_miss_rate::switch_cpus0.inst            1                       # mshr miss rate for overall accesses
system.cpu0.l2cache.overall_mshr_miss_rate::switch_cpus0.data     0.900804                       # mshr miss rate for overall accesses
system.cpu0.l2cache.overall_mshr_miss_rate::total     0.900806                       # mshr miss rate for overall accesses
system.cpu0.l2cache.UpgradeReq_avg_mshr_miss_latency::switch_cpus0.data 13955.380952                       # average UpgradeReq mshr miss latency
system.cpu0.l2cache.UpgradeReq_avg_mshr_miss_latency::total 13955.380952                       # average UpgradeReq mshr miss latency
system.cpu0.l2cache.ReadExReq_avg_mshr_miss_latency::switch_cpus0.data 43156.042982                       # average ReadExReq mshr miss latency
system.cpu0.l2cache.ReadExReq_avg_mshr_miss_latency::total 43156.042982                       # average ReadExReq mshr miss latency
system.cpu0.l2cache.ReadCleanReq_avg_mshr_miss_latency::switch_cpus0.inst 112204.370000                       # average ReadCleanReq mshr miss latency
system.cpu0.l2cache.ReadCleanReq_avg_mshr_miss_latency::total 112204.370000                       # average ReadCleanReq mshr miss latency
system.cpu0.l2cache.ReadSharedReq_avg_mshr_miss_latency::switch_cpus0.data 59110.013173                       # average ReadSharedReq mshr miss latency
system.cpu0.l2cache.ReadSharedReq_avg_mshr_miss_latency::total 59110.013173                       # average ReadSharedReq mshr miss latency
system.cpu0.l2cache.demand_avg_mshr_miss_latency::switch_cpus0.inst 112204.370000                       # average overall mshr miss latency
system.cpu0.l2cache.demand_avg_mshr_miss_latency::switch_cpus0.data 53562.700103                       # average overall mshr miss latency
system.cpu0.l2cache.demand_avg_mshr_miss_latency::total 53564.090328                       # average overall mshr miss latency
system.cpu0.l2cache.overall_avg_mshr_miss_latency::switch_cpus0.inst 112204.370000                       # average overall mshr miss latency
system.cpu0.l2cache.overall_avg_mshr_miss_latency::switch_cpus0.data 53562.700103                       # average overall mshr miss latency
system.cpu0.l2cache.overall_avg_mshr_miss_latency::total 53564.090328                       # average overall mshr miss latency
system.cpu0.toL2Bus.snoop_filter.tot_requests      9366570                       # Total number of requests made to the snoop filter.
system.cpu0.toL2Bus.snoop_filter.hit_single_requests      4683917                       # Number of requests hitting in the snoop filter with a single holder of the requested data.
system.cpu0.toL2Bus.snoop_filter.hit_multi_requests           31                       # Number of requests hitting in the snoop filter with multiple (>1) holders of the requested data.
system.cpu0.toL2Bus.snoop_filter.tot_snoops         1708                       # Total number of snoops made to the snoop filter.
system.cpu0.toL2Bus.snoop_filter.hit_single_snoops         1699                       # Number of snoops hitting in the snoop filter with a single holder of the requested data.
system.cpu0.toL2Bus.snoop_filter.hit_multi_snoops            9                       # Number of snoops hitting in the snoop filter with multiple (>1) holders of the requested data.
system.cpu0.toL2Bus.pwrStateResidencyTicks::UNDEFINED 709937917101                       # Cumulative time (in ticks) in various power states
system.cpu0.toL2Bus.trans_dist::ReadResp      3035639                       # Transaction distribution
system.cpu0.toL2Bus.trans_dist::WritebackDirty      4276722                       # Transaction distribution
system.cpu0.toL2Bus.trans_dist::WritebackClean          100                       # Transaction distribution
system.cpu0.toL2Bus.trans_dist::CleanEvict      4692422                       # Transaction distribution
system.cpu0.toL2Bus.trans_dist::UpgradeReq         1238                       # Transaction distribution
system.cpu0.toL2Bus.trans_dist::UpgradeResp         1238                       # Transaction distribution
system.cpu0.toL2Bus.trans_dist::ReadExReq      1646990                       # Transaction distribution
system.cpu0.toL2Bus.trans_dist::ReadExResp      1646990                       # Transaction distribution
system.cpu0.toL2Bus.trans_dist::ReadCleanReq          100                       # Transaction distribution
system.cpu0.toL2Bus.trans_dist::ReadSharedReq      3035541                       # Transaction distribution
system.cpu0.toL2Bus.pkt_count_system.cpu0.icache.mem_side::system.cpu0.l2cache.cpu_side          300                       # Packet count per connected master and slave (bytes)
system.cpu0.toL2Bus.pkt_count_system.cpu0.dcache.mem_side::system.cpu0.l2cache.cpu_side     14050065                       # Packet count per connected master and slave (bytes)
system.cpu0.toL2Bus.pkt_count::total         14050365                       # Packet count per connected master and slave (bytes)
system.cpu0.toL2Bus.pkt_size_system.cpu0.icache.mem_side::system.cpu0.l2cache.cpu_side        12800                       # Cumulative packet size per connected master and slave (bytes)
system.cpu0.toL2Bus.pkt_size_system.cpu0.dcache.mem_side::system.cpu0.l2cache.cpu_side    441078720                       # Cumulative packet size per connected master and slave (bytes)
system.cpu0.toL2Bus.pkt_size::total         441091520                       # Cumulative packet size per connected master and slave (bytes)
system.cpu0.toL2Bus.snoops                    4286615                       # Total snoops (count)
system.cpu0.toL2Bus.snoopTraffic            132313344                       # Total snoop traffic (bytes)
system.cpu0.toL2Bus.snoop_fanout::samples      8970500                       # Request fanout histogram
system.cpu0.toL2Bus.snoop_fanout::mean       0.000195                       # Request fanout histogram
system.cpu0.toL2Bus.snoop_fanout::stdev      0.014034                       # Request fanout histogram
system.cpu0.toL2Bus.snoop_fanout::underflows            0      0.00%      0.00% # Request fanout histogram
system.cpu0.toL2Bus.snoop_fanout::0           8968760     99.98%     99.98% # Request fanout histogram
system.cpu0.toL2Bus.snoop_fanout::1              1731      0.02%    100.00% # Request fanout histogram
system.cpu0.toL2Bus.snoop_fanout::2                 9      0.00%    100.00% # Request fanout histogram
system.cpu0.toL2Bus.snoop_fanout::3                 0      0.00%    100.00% # Request fanout histogram
system.cpu0.toL2Bus.snoop_fanout::4                 0      0.00%    100.00% # Request fanout histogram
system.cpu0.toL2Bus.snoop_fanout::overflows            0      0.00%    100.00% # Request fanout histogram
system.cpu0.toL2Bus.snoop_fanout::min_value            0                       # Request fanout histogram
system.cpu0.toL2Bus.snoop_fanout::max_value            2                       # Request fanout histogram
system.cpu0.toL2Bus.snoop_fanout::total       8970500                       # Request fanout histogram
system.cpu0.toL2Bus.reqLayer0.occupancy    4590556160                       # Layer occupancy (ticks)
system.cpu0.toL2Bus.reqLayer0.utilization          4.0                       # Layer utilization (%)
system.cpu0.toL2Bus.respLayer0.occupancy        99900                       # Layer occupancy (ticks)
system.cpu0.toL2Bus.respLayer0.utilization          0.0                       # Layer utilization (%)
system.cpu0.toL2Bus.respLayer1.occupancy   4678258725                       # Layer occupancy (ticks)
system.cpu0.toL2Bus.respLayer1.utilization          4.0                       # Layer utilization (%)
system.cpu1.dtb.walker.pwrStateResidencyTicks::UNDEFINED 709937917101                       # Cumulative time (in ticks) in various power states
system.cpu1.dtb.rdAccesses                          0                       # TLB accesses on read requests
system.cpu1.dtb.wrAccesses                          0                       # TLB accesses on write requests
system.cpu1.dtb.rdMisses                            0                       # TLB misses on read requests
system.cpu1.dtb.wrMisses                            0                       # TLB misses on write requests
system.cpu1.apic_clk_domain.clock                5328                       # Clock period in ticks
system.cpu1.interrupts.pwrStateResidencyTicks::UNDEFINED 709937917101                       # Cumulative time (in ticks) in various power states
system.cpu1.itb.walker.pwrStateResidencyTicks::UNDEFINED 709937917101                       # Cumulative time (in ticks) in various power states
system.cpu1.itb.rdAccesses                          0                       # TLB accesses on read requests
system.cpu1.itb.wrAccesses                          0                       # TLB accesses on write requests
system.cpu1.itb.rdMisses                            0                       # TLB misses on read requests
system.cpu1.itb.wrMisses                            0                       # TLB misses on write requests
system.cpu1.workload.numSyscalls                  133                       # Number of system calls
system.cpu1.numPwrStateTransitions                  1                       # Number of power state transitions
system.cpu1.pwrStateResidencyTicks::ON   593758641339                       # Cumulative time (in ticks) in various power states
system.cpu1.pwrStateResidencyTicks::OFF  116179275762                       # Cumulative time (in ticks) in various power states
system.cpu1.numCycles                               1                       # number of cpu cycles simulated
system.cpu1.numWorkItemsStarted                     0                       # number of work items this cpu started
system.cpu1.numWorkItemsCompleted                   0                       # number of work items this cpu completed
system.cpu1.committedInsts                          1                       # Number of instructions committed
system.cpu1.committedOps                            1                       # Number of ops (including micro ops) committed
system.cpu1.num_int_alu_accesses                    1                       # Number of integer alu accesses
system.cpu1.num_fp_alu_accesses                     0                       # Number of float alu accesses
system.cpu1.num_vec_alu_accesses                    0                       # Number of vector alu accesses
system.cpu1.num_func_calls                          0                       # number of times a function call or return occured
system.cpu1.num_conditional_control_insts            0                       # number of instructions that are conditional controls
system.cpu1.num_int_insts                           1                       # number of integer instructions
system.cpu1.num_fp_insts                            0                       # number of float instructions
system.cpu1.num_vec_insts                           0                       # number of vector instructions
system.cpu1.num_int_register_reads                  2                       # number of times the integer registers were read
system.cpu1.num_int_register_writes                 1                       # number of times the integer registers were written
system.cpu1.num_fp_register_reads                   0                       # number of times the floating registers were read
system.cpu1.num_fp_register_writes                  0                       # number of times the floating registers were written
system.cpu1.num_vec_register_reads                  0                       # number of times the vector registers were read
[...]
system.switch_cpus3.iew.exec_stores          15686408                       # Number of stores executed
system.switch_cpus3.iew.exec_rate            0.782843                       # Inst execution rate
system.switch_cpus3.iew.wb_sent             267462089                       # cumulative count of insts sent to commit
system.switch_cpus3.iew.wb_count            267459312                       # cumulative count of insts written-back
system.switch_cpus3.iew.wb_producers        202283675                       # num instructions producing a value
system.switch_cpus3.iew.wb_consumers        342957620                       # num instructions consuming a value
system.switch_cpus3.iew.wb_rate              0.766608                       # insts written-back per cycle
system.switch_cpus3.iew.wb_fanout            0.589821                       # average fanout of values written-back
system.switch_cpus3.commit.commitSquashedInsts       200040                       # The number of squashed insts skipped by commit
system.switch_cpus3.commit.commitNonSpecStalls          133                       # The number of times commit has been forced to stall to communicate backwards
system.switch_cpus3.commit.branchMispredicts         7528                       # The number of times a branch was mispredicted
system.switch_cpus3.commit.committed_per_cycle::samples    348852377                       # Number of insts commited each cycle
system.switch_cpus3.commit.committed_per_cycle::mean     0.766377                       # Number of insts commited each cycle
system.switch_cpus3.commit.committed_per_cycle::stdev     2.140490                       # Number of insts commited each cycle
system.switch_cpus3.commit.committed_per_cycle::underflows            0      0.00%      0.00% # Number of insts commited each cycle
system.switch_cpus3.commit.committed_per_cycle::0    296862477     85.10%     85.10% # Number of insts commited each cycle
system.switch_cpus3.commit.committed_per_cycle::1      7987076      2.29%     87.39% # Number of insts commited each cycle
system.switch_cpus3.commit.committed_per_cycle::2      8326698      2.39%     89.77% # Number of insts commited each cycle
system.switch_cpus3.commit.committed_per_cycle::3      3822410      1.10%     90.87% # Number of insts commited each cycle
system.switch_cpus3.commit.committed_per_cycle::4      2326187      0.67%     91.54% # Number of insts commited each cycle
system.switch_cpus3.commit.committed_per_cycle::5      1409863      0.40%     91.94% # Number of insts commited each cycle
system.switch_cpus3.commit.committed_per_cycle::6      3149306      0.90%     92.84% # Number of insts commited each cycle
system.switch_cpus3.commit.committed_per_cycle::7      3752206      1.08%     93.92% # Number of insts commited each cycle
system.switch_cpus3.commit.committed_per_cycle::8     21216154      6.08%    100.00% # Number of insts commited each cycle
system.switch_cpus3.commit.committed_per_cycle::overflows            0      0.00%    100.00% # Number of insts commited each cycle
system.switch_cpus3.commit.committed_per_cycle::min_value            0                       # Number of insts commited each cycle
system.switch_cpus3.commit.committed_per_cycle::max_value            8                       # Number of insts commited each cycle
system.switch_cpus3.commit.committed_per_cycle::total    348852377                       # Number of insts commited each cycle
system.switch_cpus3.commit.committedInsts    199704208                       # Number of instructions committed
system.switch_cpus3.commit.committedOps     267352275                       # Number of ops (including micro ops) committed
system.switch_cpus3.commit.swp_count                0                       # Number of s/w prefetches committed
system.switch_cpus3.commit.refs              64223937                       # Number of memory references committed
system.switch_cpus3.commit.loads             48540991                       # Number of loads committed
system.switch_cpus3.commit.membars                  0                       # Number of memory barriers committed
system.switch_cpus3.commit.branches           9875892                       # Number of branches committed
system.switch_cpus3.commit.vec_insts                0                       # Number of committed Vector instructions.
system.switch_cpus3.commit.fp_insts         161943037                       # Number of committed floating point instructions.
system.switch_cpus3.commit.int_insts        165042149                       # Number of committed integer instructions.
system.switch_cpus3.commit.function_calls       745460                       # Number of function calls committed.
system.switch_cpus3.commit.op_class_0::No_OpClass          606      0.00%      0.00% # Class of committed instruction
system.switch_cpus3.commit.op_class_0::IntAlu    130805305     48.93%     48.93% # Class of committed instruction
system.switch_cpus3.commit.op_class_0::IntMult       212088      0.08%     49.01% # Class of committed instruction
system.switch_cpus3.commit.op_class_0::IntDiv         1456      0.00%     49.01% # Class of committed instruction
system.switch_cpus3.commit.op_class_0::FloatAdd     72108883     26.97%     75.98% # Class of committed instruction
system.switch_cpus3.commit.op_class_0::FloatCmp            0      0.00%     75.98% # Class of committed instruction
system.switch_cpus3.commit.op_class_0::FloatCvt            0      0.00%     75.98% # Class of committed instruction
system.switch_cpus3.commit.op_class_0::FloatMult            0      0.00%     75.98% # Class of committed instruction
system.switch_cpus3.commit.op_class_0::FloatMultAcc            0      0.00%     75.98% # Class of committed instruction
system.switch_cpus3.commit.op_class_0::FloatDiv            0      0.00%     75.98% # Class of committed instruction
system.switch_cpus3.commit.op_class_0::FloatMisc            0      0.00%     75.98% # Class of committed instruction
system.switch_cpus3.commit.op_class_0::FloatSqrt            0      0.00%     75.98% # Class of committed instruction
system.switch_cpus3.commit.op_class_0::SimdAdd            0      0.00%     75.98% # Class of committed instruction
system.switch_cpus3.commit.op_class_0::SimdAddAcc            0      0.00%     75.98% # Class of committed instruction
system.switch_cpus3.commit.op_class_0::SimdAlu            0      0.00%     75.98% # Class of committed instruction
system.switch_cpus3.commit.op_class_0::SimdCmp            0      0.00%     75.98% # Class of committed instruction
system.switch_cpus3.commit.op_class_0::SimdCvt            0      0.00%     75.98% # Class of committed instruction
system.switch_cpus3.commit.op_class_0::SimdMisc            0      0.00%     75.98% # Class of committed instruction
system.switch_cpus3.commit.op_class_0::SimdMult            0      0.00%     75.98% # Class of committed instruction
system.switch_cpus3.commit.op_class_0::SimdMultAcc            0      0.00%     75.98% # Class of committed instruction
system.switch_cpus3.commit.op_class_0::SimdShift            0      0.00%     75.98% # Class of committed instruction
system.switch_cpus3.commit.op_class_0::SimdShiftAcc            0      0.00%     75.98% # Class of committed instruction
system.switch_cpus3.commit.op_class_0::SimdSqrt            0      0.00%     75.98% # Class of committed instruction
system.switch_cpus3.commit.op_class_0::SimdFloatAdd            0      0.00%     75.98% # Class of committed instruction
system.switch_cpus3.commit.op_class_0::SimdFloatAlu            0      0.00%     75.98% # Class of committed instruction
system.switch_cpus3.commit.op_class_0::SimdFloatCmp            0      0.00%     75.98% # Class of committed instruction
system.switch_cpus3.commit.op_class_0::SimdFloatCvt            0      0.00%     75.98% # Class of committed instruction
system.switch_cpus3.commit.op_class_0::SimdFloatDiv            0      0.00%     75.98% # Class of committed instruction
system.switch_cpus3.commit.op_class_0::SimdFloatMisc            0      0.00%     75.98% # Class of committed instruction
system.switch_cpus3.commit.op_class_0::SimdFloatMult            0      0.00%     75.98% # Class of committed instruction
system.switch_cpus3.commit.op_class_0::SimdFloatMultAcc            0      0.00%     75.98% # Class of committed instruction
system.switch_cpus3.commit.op_class_0::SimdFloatSqrt            0      0.00%     75.98% # Class of committed instruction
system.switch_cpus3.commit.op_class_0::MemRead      3456815      1.29%     77.27% # Class of committed instruction
system.switch_cpus3.commit.op_class_0::MemWrite      1133366      0.42%     77.69% # Class of committed instruction
system.switch_cpus3.commit.op_class_0::FloatMemRead     45084176     16.86%     94.56% # Class of committed instruction
system.switch_cpus3.commit.op_class_0::FloatMemWrite     14549580      5.44%    100.00% # Class of committed instruction
system.switch_cpus3.commit.op_class_0::IprAccess            0      0.00%    100.00% # Class of committed instruction
system.switch_cpus3.commit.op_class_0::InstPrefetch            0      0.00%    100.00% # Class of committed instruction
system.switch_cpus3.commit.op_class_0::total    267352275                       # Class of committed instruction
system.switch_cpus3.commit.bw_lim_events     21216154                       # number cycles where commit BW limit reached
system.switch_cpus3.rob.rob_reads           595188538                       # The number of ROB reads
system.switch_cpus3.rob.rob_writes          535137168                       # The number of ROB writes
system.switch_cpus3.timesIdled                     28                       # Number of times that the entire CPU went into an idle state and unscheduled itself
system.switch_cpus3.idleCycles                   2423                       # Total number of cycles that the CPU has spent unscheduled due to idling
system.switch_cpus3.committedInsts          199704208                       # Number of Instructions Simulated
system.switch_cpus3.committedOps            267352275                       # Number of Ops (including micro ops) Simulated
system.switch_cpus3.cpi                      1.747017                       # CPI: Cycles Per Instruction
system.switch_cpus3.cpi_total                1.747017                       # CPI: Total CPI of All Threads
system.switch_cpus3.ipc                      0.572404                       # IPC: Instructions Per Cycle
system.switch_cpus3.ipc_total                0.572404                       # IPC: Total IPC of All Threads
system.switch_cpus3.int_regfile_reads       254217069                       # number of integer regfile reads
system.switch_cpus3.int_regfile_writes       94706368                       # number of integer regfile writes
system.switch_cpus3.fp_regfile_reads        288885485                       # number of floating regfile reads
system.switch_cpus3.fp_regfile_writes       147396230                       # number of floating regfile writes
system.switch_cpus3.cc_regfile_reads         46148382                       # number of cc regfile reads
system.switch_cpus3.cc_regfile_writes        71217744                       # number of cc regfile writes
system.switch_cpus3.misc_regfile_reads       90093693                       # number of misc regfile reads
system.switch_cpus3.misc_regfile_writes             1                       # number of misc regfile writes
system.tol3bus.snoop_filter.tot_requests     33702543                       # Total number of requests made to the snoop filter.
system.tol3bus.snoop_filter.hit_single_requests     16851553                       # Number of requests hitting in the snoop filter with a single holder of the requested data.
system.tol3bus.snoop_filter.hit_multi_requests            0                       # Number of requests hitting in the snoop filter with multiple (>1) holders of the requested data.
system.tol3bus.snoop_filter.tot_snoops         122921                       # Total number of snoops made to the snoop filter.
system.tol3bus.snoop_filter.hit_single_snoops       122921                       # Number of snoops hitting in the snoop filter with a single holder of the requested data.
system.tol3bus.snoop_filter.hit_multi_snoops            0                       # Number of snoops hitting in the snoop filter with multiple (>1) holders of the requested data.
system.tol3bus.pwrStateResidencyTicks::UNDEFINED 709937917101                       # Cumulative time (in ticks) in various power states
system.tol3bus.trans_dist::ReadResp          10980228                       # Transaction distribution
system.tol3bus.trans_dist::WritebackDirty     13396329                       # Transaction distribution
system.tol3bus.trans_dist::CleanEvict        17151197                       # Transaction distribution
system.tol3bus.trans_dist::UpgradeReq              84                       # Transaction distribution
system.tol3bus.trans_dist::UpgradeResp             84                       # Transaction distribution
system.tol3bus.trans_dist::ReadExReq          5870775                       # Transaction distribution
system.tol3bus.trans_dist::ReadExResp         5870775                       # Transaction distribution
system.tol3bus.trans_dist::ReadSharedReq     10980239                       # Transaction distribution
system.tol3bus.pkt_count_system.cpu0.l2cache.mem_side::system.l3.cpu_side     12654559                       # Packet count per connected master and slave (bytes)
system.tol3bus.pkt_count_system.cpu1.l2cache.mem_side::system.l3.cpu_side     12655814                       # Packet count per connected master and slave (bytes)
system.tol3bus.pkt_count_system.cpu2.l2cache.mem_side::system.l3.cpu_side     12631500                       # Packet count per connected master and slave (bytes)
system.tol3bus.pkt_count_system.cpu3.l2cache.mem_side::system.l3.cpu_side     12611747                       # Packet count per connected master and slave (bytes)
system.tol3bus.pkt_count::total              50553620                       # Packet count per connected master and slave (bytes)
system.tol3bus.pkt_size_system.cpu0.l2cache.mem_side::system.l3.cpu_side    402274432                       # Cumulative packet size per connected master and slave (bytes)
system.tol3bus.pkt_size_system.cpu1.l2cache.mem_side::system.l3.cpu_side    401842944                       # Cumulative packet size per connected master and slave (bytes)
system.tol3bus.pkt_size_system.cpu2.l2cache.mem_side::system.l3.cpu_side    400730880                       # Cumulative packet size per connected master and slave (bytes)
system.tol3bus.pkt_size_system.cpu3.l2cache.mem_side::system.l3.cpu_side    399884544                       # Cumulative packet size per connected master and slave (bytes)
system.tol3bus.pkt_size::total             1604732800                       # Cumulative packet size per connected master and slave (bytes)
system.tol3bus.snoops                        13696091                       # Total snoops (count)
system.tol3bus.snoopTraffic                 331096448                       # Total snoop traffic (bytes)
system.tol3bus.snoop_fanout::samples         30547191                       # Request fanout histogram
system.tol3bus.snoop_fanout::mean            0.004024                       # Request fanout histogram
system.tol3bus.snoop_fanout::stdev           0.063307                       # Request fanout histogram
system.tol3bus.snoop_fanout::underflows             0      0.00%      0.00% # Request fanout histogram
system.tol3bus.snoop_fanout::0               30424270     99.60%     99.60% # Request fanout histogram
system.tol3bus.snoop_fanout::1                 122921      0.40%    100.00% # Request fanout histogram
system.tol3bus.snoop_fanout::2                      0      0.00%    100.00% # Request fanout histogram
system.tol3bus.snoop_fanout::3                      0      0.00%    100.00% # Request fanout histogram
system.tol3bus.snoop_fanout::4                      0      0.00%    100.00% # Request fanout histogram
system.tol3bus.snoop_fanout::overflows              0      0.00%    100.00% # Request fanout histogram
system.tol3bus.snoop_fanout::min_value              0                       # Request fanout histogram
system.tol3bus.snoop_fanout::max_value              1                       # Request fanout histogram
system.tol3bus.snoop_fanout::total           30547191                       # Request fanout histogram
system.tol3bus.reqLayer0.occupancy        55176146402                       # Layer occupancy (ticks)
system.tol3bus.reqLayer0.utilization             47.5                       # Layer utilization (%)
system.tol3bus.respLayer0.occupancy       13435453025                       # Layer occupancy (ticks)
system.tol3bus.respLayer0.utilization            11.6                       # Layer utilization (%)
system.tol3bus.respLayer1.occupancy       13437309962                       # Layer occupancy (ticks)
system.tol3bus.respLayer1.utilization            11.6                       # Layer utilization (%)
system.tol3bus.respLayer2.occupancy       13409592764                       # Layer occupancy (ticks)
system.tol3bus.respLayer2.utilization            11.5                       # Layer utilization (%)
system.tol3bus.respLayer3.occupancy       13389112964                       # Layer occupancy (ticks)
system.tol3bus.respLayer3.utilization            11.5                       # Layer utilization (%)

---------- End Simulation Statistics   ----------
t histogram
system.tol3bus.snoop_fanout::mean            0.001332                       # Request fanout histogram
system.tol3bus.snoop_fanout::stdev           0.036474                       # Request fanout histogram
system.tol3bus.snoop_fanout::underflows             0      0.00%      0.00% # Request fanout histogram
system.tol3bus.snoop_fanout::0               17514168     99.87%     99.87% # Request fanout histogram
system.tol3bus.snoop_fanout::1                  23362      0.13%    100.00% # Request fanout histogram
system.tol3bus.snoop_fanout::2                      0      0.00%    100.00% # Request fanout histogram
system.tol3bus.snoop_fanout::3                      0      0.00%    100.00% # Request fanout histogram
system.tol3bus.snoop_fanout::4                      0      0.00%    100.00% # Request fanout histogram
system.tol3bus.snoop_fanout::overflows              0      0.00%    100.00% # Request fanout histogram
system.tol3bus.snoop_fanout::min_value              0                       # Request fanout histogram
system.tol3bus.snoop_fanout::max_value              1                       # Request fanout histogram
system.tol3bus.snoop_fanout::total           17537530                       # Request fanout histogram
system.tol3bus.reqLayer0.occupancy        31706138613                       # Layer occupancy (ticks)
system.tol3bus.reqLayer0.utilization             30.0                       # Layer utilization (%)
system.tol3bus.respLayer0.occupancy        7834291860                       # Layer occupancy (ticks)
system.tol3bus.respLayer0.utilization             7.4                       # Layer utilization (%)
system.tol3bus.respLayer1.occupancy        7825384475                       # Layer occupancy (ticks)
system.tol3bus.respLayer1.utilization             7.4                       # Layer utilization (%)
system.tol3bus.respLayer2.occupancy        7846653184                       # Layer occupancy (ticks)
system.tol3bus.respLayer2.utilization             7.4                       # Layer utilization (%)
system.tol3bus.respLayer3.occupancy        7853612110                       # Layer occupancy (ticks)
system.tol3bus.respLayer3.utilization             7.4                       # Layer utilization (%)

---------- End Simulation Statistics   ----------
