
---------- Begin Simulation Statistics ----------
sim_seconds                                  0.093850                       # Number of seconds simulated
sim_ticks                                 93849690033                       # Number of ticks simulated
final_tick                                93849690033                       # Number of ticks from beginning of simulation (restored from checkpoints and never reset)
sim_freq                                 1000000000000                       # Frequency of simulated ticks
host_inst_rate                                 207370                       # Simulator instruction rate (inst/s)
host_op_rate                                   289793                       # Simulator op (including micro ops) rate (op/s)
host_tick_rate                               24365266                       # Simulator tick rate (ticks/s)
host_mem_usage                               33871380                       # Number of bytes of host memory used
host_seconds                                  3851.78                       # Real time elapsed on the host
sim_insts                                   798743014                       # Number of instructions simulated
sim_ops                                    1116220749                       # Number of ops (including micro ops) simulated
system.voltage_domain.voltage                       1                       # Voltage in Volts
system.clk_domain.clock                          1000                       # Clock period in ticks
system.mem_ctrls.pwrStateResidencyTicks::UNDEFINED  93849690033                       # Cumulative time (in ticks) in various power states
system.mem_ctrls.bytes_read::cpu0.inst         123520                       # Number of bytes read from this memory
system.mem_ctrls.bytes_read::cpu0.data      115551424                       # Number of bytes read from this memory
system.mem_ctrls.bytes_read::cpu1.inst         122752                       # Number of bytes read from this memory
system.mem_ctrls.bytes_read::cpu1.data      114716416                       # Number of bytes read from this memory
system.mem_ctrls.bytes_read::cpu2.inst         123712                       # Number of bytes read from this memory
system.mem_ctrls.bytes_read::cpu2.data      115220992                       # Number of bytes read from this memory
system.mem_ctrls.bytes_read::cpu3.inst         123072                       # Number of bytes read from this memory
system.mem_ctrls.bytes_read::cpu3.data      115348096                       # Number of bytes read from this memory
system.mem_ctrls.bytes_read::total          461329984                       # Number of bytes read from this memory
system.mem_ctrls.bytes_inst_read::cpu0.inst       123520                       # Number of instructions bytes read from this memory
system.mem_ctrls.bytes_inst_read::cpu1.inst       122752                       # Number of instructions bytes read from this memory
system.mem_ctrls.bytes_inst_read::cpu2.inst       123712                       # Number of instructions bytes read from this memory
system.mem_ctrls.bytes_inst_read::cpu3.inst       123072                       # Number of instructions bytes read from this memory
system.mem_ctrls.bytes_inst_read::total        493056                       # Number of instructions bytes read from this memory
system.mem_ctrls.bytes_written::writebacks    123408256                       # Number of bytes written to this memory
system.mem_ctrls.bytes_written::total       123408256                       # Number of bytes written to this memory
system.mem_ctrls.num_reads::cpu0.inst            1930                       # Number of read requests responded to by this memory
system.mem_ctrls.num_reads::cpu0.data         1805491                       # Number of read requests responded to by this memory
system.mem_ctrls.num_reads::cpu1.inst            1918                       # Number of read requests responded to by this memory
system.mem_ctrls.num_reads::cpu1.data         1792444                       # Number of read requests responded to by this memory
system.mem_ctrls.num_reads::cpu2.inst            1933                       # Number of read requests responded to by this memory
system.mem_ctrls.num_reads::cpu2.data         1800328                       # Number of read requests responded to by this memory
system.mem_ctrls.num_reads::cpu3.inst            1923                       # Number of read requests responded to by this memory
system.mem_ctrls.num_reads::cpu3.data         1802314                       # Number of read requests responded to by this memory
system.mem_ctrls.num_reads::total             7208281                       # Number of read requests responded to by this memory
system.mem_ctrls.num_writes::writebacks       1928254                       # Number of write requests responded to by this memory
system.mem_ctrls.num_writes::total            1928254                       # Number of write requests responded to by this memory
system.mem_ctrls.bw_read::cpu0.inst           1316147                       # Total read bandwidth from this memory (bytes/s)
system.mem_ctrls.bw_read::cpu0.data        1231239272                       # Total read bandwidth from this memory (bytes/s)
system.mem_ctrls.bw_read::cpu1.inst           1307964                       # Total read bandwidth from this memory (bytes/s)
system.mem_ctrls.bw_read::cpu1.data        1222341981                       # Total read bandwidth from this memory (bytes/s)
system.mem_ctrls.bw_read::cpu2.inst           1318193                       # Total read bandwidth from this memory (bytes/s)
system.mem_ctrls.bw_read::cpu2.data        1227718408                       # Total read bandwidth from this memory (bytes/s)
system.mem_ctrls.bw_read::cpu3.inst           1311374                       # Total read bandwidth from this memory (bytes/s)
system.mem_ctrls.bw_read::cpu3.data        1229072743                       # Total read bandwidth from this memory (bytes/s)
system.mem_ctrls.bw_read::total            4915626081                       # Total read bandwidth from this memory (bytes/s)
system.mem_ctrls.bw_inst_read::cpu0.inst      1316147                       # Instruction read bandwidth from this memory (bytes/s)
system.mem_ctrls.bw_inst_read::cpu1.inst      1307964                       # Instruction read bandwidth from this memory (bytes/s)
system.mem_ctrls.bw_inst_read::cpu2.inst      1318193                       # Instruction read bandwidth from this memory (bytes/s)
system.mem_ctrls.bw_inst_read::cpu3.inst      1311374                       # Instruction read bandwidth from this memory (bytes/s)
system.mem_ctrls.bw_inst_read::total          5253677                       # Instruction read bandwidth from this memory (bytes/s)
system.mem_ctrls.bw_write::writebacks      1314956458                       # Write bandwidth from this memory (bytes/s)
system.mem_ctrls.bw_write::total           1314956458                       # Write bandwidth from this memory (bytes/s)
system.mem_ctrls.bw_total::writebacks      1314956458                       # Total bandwidth to/from this memory (bytes/s)
system.mem_ctrls.bw_total::cpu0.inst          1316147                       # Total bandwidth to/from this memory (bytes/s)
system.mem_ctrls.bw_total::cpu0.data       1231239272                       # Total bandwidth to/from this memory (bytes/s)
system.mem_ctrls.bw_total::cpu1.inst          1307964                       # Total bandwidth to/from this memory (bytes/s)
system.mem_ctrls.bw_total::cpu1.data       1222341981                       # Total bandwidth to/from this memory (bytes/s)
system.mem_ctrls.bw_total::cpu2.inst          1318193                       # Total bandwidth to/from this memory (bytes/s)
system.mem_ctrls.bw_total::cpu2.data       1227718408                       # Total bandwidth to/from this memory (bytes/s)
system.mem_ctrls.bw_total::cpu3.inst          1311374                       # Total bandwidth to/from this memory (bytes/s)
system.mem_ctrls.bw_total::cpu3.data       1229072743                       # Total bandwidth to/from this memory (bytes/s)
system.mem_ctrls.bw_total::total           6230582539                       # Total bandwidth to/from this memory (bytes/s)
system.pwrStateResidencyTicks::UNDEFINED  93849690033                       # Cumulative time (in ticks) in various power states
system.cpu0.branchPred.lookups               12091404                       # Number of BP lookups
system.cpu0.branchPred.condPredicted         12091404                       # Number of conditional branches predicted
system.cpu0.branchPred.condIncorrect           157804                       # Number of conditional branches incorrect
system.cpu0.branchPred.BTBLookups             9719392                       # Number of BTB lookups
system.cpu0.branchPred.BTBHits                      0                       # Number of BTB hits
system.cpu0.branchPred.BTBCorrect                   0                       # Number of correct BTB predictions (this stat may not work properly.
system.cpu0.branchPred.BTBHitPct             0.000000                       # BTB Hit Percentage
system.cpu0.branchPred.usedRAS                1007442                       # Number of times the RAS was used to get a target.
system.cpu0.branchPred.RASInCorrect             16099                       # Number of incorrect RAS predictions.
system.cpu0.branchPred.indirectLookups        9719392                       # Number of indirect predictor lookups.
system.cpu0.branchPred.indirectHits           7638619                       # Number of indirect target hits.
system.cpu0.branchPred.indirectMisses         2080773                       # Number of indirect misses.
system.cpu0.branchPredindirectMispredicted        49627                       # Number of mispredicted indirect branches.
system.cpu_voltage_domain.voltage                   1                       # Voltage in Volts
system.cpu_clk_domain.clock                       333                       # Clock period in ticks
system.cpu0.dtb.walker.pwrStateResidencyTicks::UNDEFINED  93849690033                       # Cumulative time (in ticks) in various power states
system.cpu0.dtb.rdAccesses                   53779734                       # TLB accesses on read requests
system.cpu0.dtb.wrAccesses                   14718663                       # TLB accesses on write requests
system.cpu0.dtb.rdMisses                       228212                       # TLB misses on read requests
system.cpu0.dtb.wrMisses                        18965                       # TLB misses on write requests
system.cpu0.apic_clk_domain.clock                5328                       # Clock period in ticks
system.cpu0.interrupts.pwrStateResidencyTicks::UNDEFINED  93849690033                       # Cumulative time (in ticks) in various power states
system.cpu0.itb.walker.pwrStateResidencyTicks::UNDEFINED  93849690033                       # Cumulative time (in ticks) in various power states
system.cpu0.itb.rdAccesses                          0                       # TLB accesses on read requests
system.cpu0.itb.wrAccesses                   21267848                       # TLB accesses on write requests
system.cpu0.itb.rdMisses                            0                       # TLB misses on read requests
system.cpu0.itb.wrMisses                          366                       # TLB misses on write requests
system.cpu0.workload.numSyscalls                   80                       # Number of system calls
system.cpu0.pwrStateResidencyTicks::ON    93849690033                       # Cumulative time (in ticks) in various power states
system.cpu0.numCycles                       281830902                       # number of cpu cycles simulated
system.cpu0.numWorkItemsStarted                     0                       # number of work items this cpu started
system.cpu0.numWorkItemsCompleted                   0                       # number of work items this cpu completed
system.cpu0.fetch.icacheStallCycles          21432975                       # Number of cycles fetch is stalled on an Icache miss
system.cpu0.fetch.Insts                     206450187                       # Number of instructions fetch has processed
system.cpu0.fetch.Branches                   12091404                       # Number of branches that fetch encountered
system.cpu0.fetch.predictedBranches           8646061                       # Number of branches that fetch has predicted taken
system.cpu0.fetch.Cycles                    260057539                       # Number of cycles fetch has run and was not squashing or blocked
system.cpu0.fetch.SquashCycles                 319648                       # Number of cycles fetch has spent squashing
system.cpu0.fetch.MiscStallCycles                 709                       # Number of cycles fetch has spent waiting on interrupts, or bad addresses, or out of MSHRs
system.cpu0.fetch.PendingTrapStallCycles         1662                       # Number of stall cycles due to pending traps
system.cpu0.fetch.PendingQuiesceStallCycles            6                       # Number of stall cycles due to pending quiesce instructions
system.cpu0.fetch.IcacheWaitRetryStallCycles          174                       # Number of stall cycles due to full MSHR
system.cpu0.fetch.CacheLines                 21267587                       # Number of cache lines fetched
system.cpu0.fetch.IcacheSquashes                39405                       # Number of outstanding Icache misses that were squashed
system.cpu0.fetch.rateDist::samples         281652889                       # Number of instructions fetched each cycle (Total)
system.cpu0.fetch.rateDist::mean             1.031433                       # Number of instructions fetched each cycle (Total)
system.cpu0.fetch.rateDist::stdev            2.497522                       # Number of instructions fetched each cycle (Total)
system.cpu0.fetch.rateDist::underflows              0      0.00%      0.00% # Number of instructions fetched each cycle (Total)
system.cpu0.fetch.rateDist::0               233630036     82.95%     82.95% # Number of instructions fetched each cycle (Total)
system.cpu0.fetch.rateDist::1                 4393070      1.56%     84.51% # Number of instructions fetched each cycle (Total)
system.cpu0.fetch.rateDist::2                 2551582      0.91%     85.42% # Number of instructions fetched each cycle (Total)
system.cpu0.fetch.rateDist::3                 3534028      1.25%     86.67% # Number of instructions fetched each cycle (Total)
system.cpu0.fetch.rateDist::4                 2892395      1.03%     87.70% # Number of instructions fetched each cycle (Total)
system.cpu0.fetch.rateDist::5                 2667169      0.95%     88.64% # Number of instructions fetched each cycle (Total)
system.cpu0.fetch.rateDist::6                 2859378      1.02%     89.66% # Number of instructions fetched each cycle (Total)
system.cpu0.fetch.rateDist::7                 4655652      1.65%     91.31% # Number of instructions fetched each cycle (Total)
system.cpu0.fetch.rateDist::8                24469579      8.69%    100.00% # Number of instructions fetched each cycle (Total)
system.cpu0.fetch.rateDist::overflows               0      0.00%    100.00% # Number of instructions fetched each cycle (Total)
system.cpu0.fetch.rateDist::min_value               0                       # Number of instructions fetched each cycle (Total)
system.cpu0.fetch.rateDist::max_value               8                       # Number of instructions fetched each cycle (Total)
system.cpu0.fetch.rateDist::total           281652889                       # Number of instructions fetched each cycle (Total)
system.cpu0.fetch.branchRate                 0.042903                       # Number of branch fetches per cycle
system.cpu0.fetch.rate                       0.732532                       # Number of inst fetches per cycle
system.cpu0.decode.IdleCycles                13145874                       # Number of cycles decode is idle
system.cpu0.decode.BlockedCycles            228113643                       # Number of cycles decode is blocked
system.cpu0.decode.RunCycles                 28571758                       # Number of cycles decode is running
system.cpu0.decode.UnblockCycles             11661790                       # Number of cycles decode is unblocking
system.cpu0.decode.SquashCycles                159824                       # Number of cycles decode is squashing
system.cpu0.decode.DecodedInsts             289204649                       # Number of instructions handled by decode
system.cpu0.rename.SquashCycles                159824                       # Number of cycles rename is squashing
system.cpu0.rename.IdleCycles                17947743                       # Number of cycles rename is idle
system.cpu0.rename.BlockCycles              145131247                       # Number of cycles rename is blocking
system.cpu0.rename.serializeStallCycles          9159                       # count of cycles rename stalled for serializing inst
system.cpu0.rename.RunCycles                 34972676                       # Number of cycles rename is running
system.cpu0.rename.UnblockCycles             83432240                       # Number of cycles rename is unblocking
system.cpu0.rename.RenamedInsts             288382622                       # Number of instructions processed by rename
system.cpu0.rename.ROBFullEvents              3801418                       # Number of times rename has blocked due to ROB full
system.cpu0.rename.IQFullEvents              20526307                       # Number of times rename has blocked due to IQ full
system.cpu0.rename.LQFullEvents              23075271                       # Number of times rename has blocked due to LQ full
system.cpu0.rename.SQFullEvents              39950816                       # Number of times rename has blocked due to SQ full
system.cpu0.rename.RenamedOperands          337830157                       # Number of destination operands rename has renamed
system.cpu0.rename.RenameLookups            729590394                       # Number of register rename lookups that rename has made
system.cpu0.rename.int_rename_lookups       272781730                       # Number of integer rename lookups
system.cpu0.rename.fp_rename_lookups        302351653                       # Number of floating rename lookups
system.cpu0.rename.CommittedMaps            327469356                       # Number of HB maps that are committed
system.cpu0.rename.UndoneMaps                10360653                       # Number of HB maps that are undone due to squashing
system.cpu0.rename.serializingInsts               249                       # count of serializing insts renamed
system.cpu0.rename.tempSerializingInsts           255                       # count of temporary serializing insts renamed
system.cpu0.rename.skidInsts                 64799985                       # count of insts added to the skid buffer
system.cpu0.memDep0.insertedLoads            50076417                       # Number of loads inserted to the mem dependence unit.
system.cpu0.memDep0.insertedStores           14902508                       # Number of stores inserted to the mem dependence unit.
system.cpu0.memDep0.conflictingLoads          1925775                       # Number of conflicting loads.
system.cpu0.memDep0.conflictingStores         1528292                       # Number of conflicting stores.
system.cpu0.iq.iqInstsAdded                 287144550                       # Number of instructions added to the IQ (excludes non-spec)
system.cpu0.iq.iqNonSpecInstsAdded               2230                       # Number of non-speculative instructions added to the IQ
system.cpu0.iq.iqInstsIssued                288273921                       # Number of instructions issued
system.cpu0.iq.iqSquashedInstsIssued            21282                       # Number of squashed instructions issued
system.cpu0.iq.iqSquashedInstsExamined        7699117                       # Number of squashed instructions iterated over during squash; mainly for profiling
system.cpu0.iq.iqSquashedOperandsExamined      9772834                       # Number of squashed operands that are examined and possibly removed from graph
system.cpu0.iq.iqSquashedNonSpecRemoved          1856                       # Number of squashed non-spec instructions that were removed
system.cpu0.iq.issued_per_cycle::samples    281652889                       # Number of insts issued each cycle
system.cpu0.iq.issued_per_cycle::mean        1.023508                       # Number of insts issued each cycle
system.cpu0.iq.issued_per_cycle::stdev       1.943807                       # Number of insts issued each cycle
system.cpu0.iq.issued_per_cycle::underflows            0      0.00%      0.00% # Number of insts issued each cycle
system.cpu0.iq.issued_per_cycle::0          197866195     70.25%     70.25% # Number of insts issued each cycle
system.cpu0.iq.issued_per_cycle::1           17976234      6.38%     76.63% # Number of insts issued each cycle
system.cpu0.iq.issued_per_cycle::2           16540701      5.87%     82.51% # Number of insts issued each cycle
system.cpu0.iq.issued_per_cycle::3           14220148      5.05%     87.56% # Number of insts issued each cycle
system.cpu0.iq.issued_per_cycle::4           10948487      3.89%     91.44% # Number of insts issued each cycle
system.cpu0.iq.issued_per_cycle::5            7642095      2.71%     94.16% # Number of insts issued each cycle
system.cpu0.iq.issued_per_cycle::6            7164983      2.54%     96.70% # Number of insts issued each cycle
system.cpu0.iq.issued_per_cycle::7            4790848      1.70%     98.40% # Number of insts issued each cycle
system.cpu0.iq.issued_per_cycle::8            4503198      1.60%    100.00% # Number of insts issued each cycle
system.cpu0.iq.issued_per_cycle::overflows            0      0.00%    100.00% # Number of insts issued each cycle
system.cpu0.iq.issued_per_cycle::min_value            0                       # Number of insts issued each cycle
system.cpu0.iq.issued_per_cycle::max_value            8                       # Number of insts issued each cycle
system.cpu0.iq.issued_per_cycle::total      281652889                       # Number of insts issued each cycle
system.cpu0.iq.fu_full::No_OpClass                  0      0.00%      0.00% # attempts to use FU when none available
system.cpu0.iq.fu_full::IntAlu                 825278     22.59%     22.59% # attempts to use FU when none available
system.cpu0.iq.fu_full::IntMult                     0      0.00%     22.59% # attempts to use FU when none available
system.cpu0.iq.fu_full::IntDiv                      0      0.00%     22.59% # attempts to use FU when none available
system.cpu0.iq.fu_full::FloatAdd              1497359     40.98%     63.57% # attempts to use FU when none available
system.cpu0.iq.fu_full::FloatCmp                    0      0.00%     63.57% # attempts to use FU when none available
system.cpu0.iq.fu_full::FloatCvt                    0      0.00%     63.57% # attempts to use FU when none available
system.cpu0.iq.fu_full::FloatMult                   0      0.00%     63.57% # attempts to use FU when none available
system.cpu0.iq.fu_full::FloatMultAcc                0      0.00%     63.57% # attempts to use FU when none available
system.cpu0.iq.fu_full::FloatDiv                    0      0.00%     63.57% # attempts to use FU when none available
system.cpu0.iq.fu_full::FloatMisc                   0      0.00%     63.57% # attempts to use FU when none available
system.cpu0.iq.fu_full::FloatSqrt                   0      0.00%     63.57% # attempts to use FU when none available
system.cpu0.iq.fu_full::SimdAdd                     0      0.00%     63.57% # attempts to use FU when none available
system.cpu0.iq.fu_full::SimdAddAcc                  0      0.00%     63.57% # attempts to use FU when none available
system.cpu0.iq.fu_full::SimdAlu                     0      0.00%     63.57% # attempts to use FU when none available
system.cpu0.iq.fu_full::SimdCmp                     0      0.00%     63.57% # attempts to use FU when none available
system.cpu0.iq.fu_full::SimdCvt                     0      0.00%     63.57% # attempts to use FU when none available
system.cpu0.iq.fu_full::SimdMisc                    0      0.00%     63.57% # attempts to use FU when none available
system.cpu0.iq.fu_full::SimdMult                    0      0.00%     63.57% # attempts to use FU when none available
system.cpu0.iq.fu_full::SimdMultAcc                 0      0.00%     63.57% # attempts to use FU when none available
system.cpu0.iq.fu_full::SimdShift                   0      0.00%     63.57% # attempts to use FU when none available
system.cpu0.iq.fu_full::SimdShiftAcc                0      0.00%     63.57% # attempts to use FU when none available
system.cpu0.iq.fu_full::SimdSqrt                    0      0.00%     63.57% # attempts to use FU when none available
system.cpu0.iq.fu_full::SimdFloatAdd                0      0.00%     63.57% # attempts to use FU when none available
system.cpu0.iq.fu_full::SimdFloatAlu                0      0.00%     63.57% # attempts to use FU when none available
system.cpu0.iq.fu_full::SimdFloatCmp                0      0.00%     63.57% # attempts to use FU when none available
system.cpu0.iq.fu_full::SimdFloatCvt                0      0.00%     63.57% # attempts to use FU when none available
system.cpu0.iq.fu_full::SimdFloatDiv                0      0.00%     63.57% # attempts to use FU when none available
system.cpu0.iq.fu_full::SimdFloatMisc               0      0.00%     63.57% # attempts to use FU when none available
system.cpu0.iq.fu_full::SimdFloatMult               0      0.00%     63.57% # attempts to use FU when none available
system.cpu0.iq.fu_full::SimdFloatMultAcc            0      0.00%     63.57% # attempts to use FU when none available
system.cpu0.iq.fu_full::SimdFloatSqrt               0      0.00%     63.57% # attempts to use FU when none available
system.cpu0.iq.fu_full::MemRead                 64954      1.78%     65.35% # attempts to use FU when none available
system.cpu0.iq.fu_full::MemWrite                32137      0.88%     66.23% # attempts to use FU when none available
system.cpu0.iq.fu_full::FloatMemRead          1227320     33.59%     99.82% # attempts to use FU when none available
system.cpu0.iq.fu_full::FloatMemWrite            6649      0.18%    100.00% # attempts to use FU when none available
system.cpu0.iq.fu_full::IprAccess                   0      0.00%    100.00% # attempts to use FU when none available
system.cpu0.iq.fu_full::InstPrefetch                0      0.00%    100.00% # attempts to use FU when none available
system.cpu0.iq.FU_type_0::No_OpClass           228232      0.08%      0.08% # Type of FU issued
system.cpu0.iq.FU_type_0::IntAlu            142627922     49.48%     49.56% # Type of FU issued
system.cpu0.iq.FU_type_0::IntMult              311130      0.11%     49.66% # Type of FU issued
system.cpu0.iq.FU_type_0::IntDiv              1344418      0.47%     50.13% # Type of FU issued
system.cpu0.iq.FU_type_0::FloatAdd           75188368     26.08%     76.21% # Type of FU issued
system.cpu0.iq.FU_type_0::FloatCmp                  0      0.00%     76.21% # Type of FU issued
system.cpu0.iq.FU_type_0::FloatCvt                  0      0.00%     76.21% # Type of FU issued
system.cpu0.iq.FU_type_0::FloatMult                 0      0.00%     76.21% # Type of FU issued
system.cpu0.iq.FU_type_0::FloatMultAcc              0      0.00%     76.21% # Type of FU issued
system.cpu0.iq.FU_type_0::FloatDiv                  0      0.00%     76.21% # Type of FU issued
system.cpu0.iq.FU_type_0::FloatMisc                 0      0.00%     76.21% # Type of FU issued
system.cpu0.iq.FU_type_0::FloatSqrt                 0      0.00%     76.21% # Type of FU issued
system.cpu0.iq.FU_type_0::SimdAdd                   0      0.00%     76.21% # Type of FU issued
system.cpu0.iq.FU_type_0::SimdAddAcc                0      0.00%     76.21% # Type of FU issued
system.cpu0.iq.FU_type_0::SimdAlu                   0      0.00%     76.21% # Type of FU issued
system.cpu0.iq.FU_type_0::SimdCmp                   0      0.00%     76.21% # Type of FU issued
system.cpu0.iq.FU_type_0::SimdCvt                   0      0.00%     76.21% # Type of FU issued
system.cpu0.iq.FU_type_0::SimdMisc                  0      0.00%     76.21% # Type of FU issued
system.cpu0.iq.FU_type_0::SimdMult                  0      0.00%     76.21% # Type of FU issued
system.cpu0.iq.FU_type_0::SimdMultAcc               0      0.00%     76.21% # Type of FU issued
system.cpu0.iq.FU_type_0::SimdShift                 0      0.00%     76.21% # Type of FU issued
system.cpu0.iq.FU_type_0::SimdShiftAcc              0      0.00%     76.21% # Type of FU issued
system.cpu0.iq.FU_type_0::SimdSqrt                  0      0.00%     76.21% # Type of FU issued
system.cpu0.iq.FU_type_0::SimdFloatAdd              0      0.00%     76.21% # Type of FU issued
system.cpu0.iq.FU_type_0::SimdFloatAlu              0      0.00%     76.21% # Type of FU issued
system.cpu0.iq.FU_type_0::SimdFloatCmp              0      0.00%     76.21% # Type of FU issued
system.cpu0.iq.FU_type_0::SimdFloatCvt              0      0.00%     76.21% # Type of FU issued
system.cpu0.iq.FU_type_0::SimdFloatDiv              0      0.00%     76.21% # Type of FU issued
system.cpu0.iq.FU_type_0::SimdFloatMisc             0      0.00%     76.21% # Type of FU issued
system.cpu0.iq.FU_type_0::SimdFloatMult             0      0.00%     76.21% # Type of FU issued
system.cpu0.iq.FU_type_0::SimdFloatMultAcc            0      0.00%     76.21% # Type of FU issued
system.cpu0.iq.FU_type_0::SimdFloatSqrt             0      0.00%     76.21% # Type of FU issued
system.cpu0.iq.FU_type_0::MemRead             7545640      2.62%     78.83% # Type of FU issued
system.cpu0.iq.FU_type_0::MemWrite            3339029      1.16%     79.99% # Type of FU issued
system.cpu0.iq.FU_type_0::FloatMemRead       46279419     16.05%     96.04% # Type of FU issued
system.cpu0.iq.FU_type_0::FloatMemWrite      11409763      3.96%    100.00% # Type of FU issued
system.cpu0.iq.FU_type_0::IprAccess                 0      0.00%    100.00% # Type of FU issued
system.cpu0.iq.FU_type_0::InstPrefetch              0      0.00%    100.00% # Type of FU issued
system.cpu0.iq.FU_type_0::total             288273921                       # Type of FU issued
system.cpu0.iq.rate                          1.022861                       # Inst issue rate
system.cpu0.iq.fu_busy_cnt                    3653697                       # FU busy when requested
system.cpu0.iq.fu_busy_rate                  0.012674                       # FU busy rate (busy events/executed inst)
system.cpu0.iq.int_inst_queue_reads         528564305                       # Number of integer instruction queue reads
system.cpu0.iq.int_inst_queue_writes        129387755                       # Number of integer instruction queue writes
system.cpu0.iq.int_inst_queue_wakeup_accesses    122578146                       # Number of integer instruction queue wakeup accesses
system.cpu0.iq.fp_inst_queue_reads          333311397                       # Number of floating instruction queue reads
system.cpu0.iq.fp_inst_queue_writes         165460180                       # Number of floating instruction queue writes
system.cpu0.iq.fp_inst_queue_wakeup_accesses    161178716                       # Number of floating instruction queue wakeup accesses
system.cpu0.iq.vec_inst_queue_reads                 0                       # Number of vector instruction queue reads
system.cpu0.iq.vec_inst_queue_writes                0                       # Number of vector instruction queue writes
system.cpu0.iq.vec_inst_queue_wakeup_accesses            0                       # Number of vector instruction queue wakeup accesses
system.cpu0.iq.int_alu_accesses             123675236                       # Number of integer alu accesses
system.cpu0.iq.fp_alu_accesses              168024150                       # Number of floating point alu accesses
system.cpu0.iq.vec_alu_accesses                     0                       # Number of vector alu accesses
system.cpu0.iew.lsq.thread0.forwLoads         2263596                       # Number of loads that had data forwarded from stores
system.cpu0.iew.lsq.thread0.invAddrLoads            0                       # Number of loads ignored due to an invalid address
system.cpu0.iew.lsq.thread0.squashedLoads      1031076                       # Number of loads squashed
system.cpu0.iew.lsq.thread0.ignoredResponses         1463                       # Number of memory responses ignored because the instruction is squashed
system.cpu0.iew.lsq.thread0.memOrderViolation         2080                       # Number of memory ordering violations
system.cpu0.iew.lsq.thread0.squashedStores       392634                       # Number of stores squashed
system.cpu0.iew.lsq.thread0.invAddrSwpfs            0                       # Number of software prefetches ignored due to an invalid address
system.cpu0.iew.lsq.thread0.blockedLoads            0                       # Number of blocked loads due to partial load-store forwarding
system.cpu0.iew.lsq.thread0.rescheduledLoads          238                       # Number of loads that were rescheduled
system.cpu0.iew.lsq.thread0.cacheBlocked      4330475                       # Number of times an access to memory failed due to the cache being blocked
system.cpu0.iew.iewIdleCycles                       0                       # Number of cycles IEW is idle
system.cpu0.iew.iewSquashCycles                159824                       # Number of cycles IEW is squashing
system.cpu0.iew.iewBlockCycles              108273533                       # Number of cycles IEW is blocking
system.cpu0.iew.iewUnblockCycles             20520161                       # Number of cycles IEW is unblocking
system.cpu0.iew.iewDispatchedInsts          287146780                       # Number of instructions dispatched to IQ
system.cpu0.iew.iewDispSquashedInsts            11267                       # Number of squashed instructions skipped by dispatch
system.cpu0.iew.iewDispLoadInsts             50076417                       # Number of dispatched load instructions
system.cpu0.iew.iewDispStoreInsts            14902508                       # Number of dispatched store instructions
system.cpu0.iew.iewDispNonSpecInsts               903                       # Number of dispatched non-speculative instructions
system.cpu0.iew.iewIQFullEvents                979920                       # Number of times the IQ has become full, causing a stall
system.cpu0.iew.iewLSQFullEvents             18867176                       # Number of times the LSQ has become full, causing a stall
system.cpu0.iew.memOrderViolationEvents          2080                       # Number of memory order violations
system.cpu0.iew.predictedTakenIncorrect         74225                       # Number of branches that were predicted taken incorrectly
system.cpu0.iew.predictedNotTakenIncorrect       106264                       # Number of branches that were predicted not taken incorrectly
system.cpu0.iew.branchMispredicts              180489                       # Number of branch mispredicts detected at execute
system.cpu0.iew.iewExecutedInsts            287937835                       # Number of executed instructions
system.cpu0.iew.iewExecLoadInsts             53779525                       # Number of load instructions executed
system.cpu0.iew.iewExecSquashedInsts           336078                       # Number of squashed instructions skipped in execute
system.cpu0.iew.exec_swp                            0                       # number of swp insts executed
system.cpu0.iew.exec_nop                            0                       # number of nop insts executed
system.cpu0.iew.exec_refs                    68498154                       # number of memory reference insts executed
system.cpu0.iew.exec_branches                11476028                       # Number of branches executed
system.cpu0.iew.exec_stores                  14718629                       # Number of stores executed
system.cpu0.iew.exec_rate                    1.021669                       # Inst execution rate
system.cpu0.iew.wb_sent                     283816144                       # cumulative count of insts sent to commit
system.cpu0.iew.wb_count                    283756862                       # cumulative count of insts written-back
system.cpu0.iew.wb_producers                217708025                       # num instructions producing a value
system.cpu0.iew.wb_consumers                378989518                       # num instructions consuming a value
system.cpu0.iew.wb_rate                      1.006834                       # insts written-back per cycle
system.cpu0.iew.wb_fanout                    0.574443                       # average fanout of values written-back
system.cpu0.commit.commitSquashedInsts        7699608                       # The number of squashed insts skipped by commit
system.cpu0.commit.commitNonSpecStalls            374                       # The number of times commit has been forced to stall to communicate backwards
system.cpu0.commit.branchMispredicts           157985                       # The number of times a branch was mispredicted
system.cpu0.commit.committed_per_cycle::samples    280593186                       # Number of insts commited each cycle
system.cpu0.commit.committed_per_cycle::mean     0.995917                       # Number of insts commited each cycle
system.cpu0.commit.committed_per_cycle::stdev     2.362397                       # Number of insts commited each cycle
system.cpu0.commit.committed_per_cycle::underflows            0      0.00%      0.00% # Number of insts commited each cycle
system.cpu0.commit.committed_per_cycle::0    223868173     79.78%     79.78% # Number of insts commited each cycle
system.cpu0.commit.committed_per_cycle::1     10014334      3.57%     83.35% # Number of insts commited each cycle
system.cpu0.commit.committed_per_cycle::2      8335441      2.97%     86.32% # Number of insts commited each cycle
system.cpu0.commit.committed_per_cycle::3      4714467      1.68%     88.00% # Number of insts commited each cycle
system.cpu0.commit.committed_per_cycle::4      3895466      1.39%     89.39% # Number of insts commited each cycle
system.cpu0.commit.committed_per_cycle::5      1800123      0.64%     90.03% # Number of insts commited each cycle
system.cpu0.commit.committed_per_cycle::6      3330519      1.19%     91.22% # Number of insts commited each cycle
system.cpu0.commit.committed_per_cycle::7      3023982      1.08%     92.30% # Number of insts commited each cycle
system.cpu0.commit.committed_per_cycle::8     21610681      7.70%    100.00% # Number of insts commited each cycle
system.cpu0.commit.committed_per_cycle::overflows            0      0.00%    100.00% # Number of insts commited each cycle
system.cpu0.commit.committed_per_cycle::min_value            0                       # Number of insts commited each cycle
system.cpu0.commit.committed_per_cycle::max_value            8                       # Number of insts commited each cycle
system.cpu0.commit.committed_per_cycle::total    280593186                       # Number of insts commited each cycle
system.cpu0.commit.committedInsts           200000001                       # Number of instructions committed
system.cpu0.commit.committedOps             279447532                       # Number of ops (including micro ops) committed
system.cpu0.commit.swp_count                        0                       # Number of s/w prefetches committed
system.cpu0.commit.refs                      63555185                       # Number of memory references committed
system.cpu0.commit.loads                     49045317                       # Number of loads committed
system.cpu0.commit.membars                        196                       # Number of memory barriers committed
system.cpu0.commit.branches                  11258443                       # Number of branches committed
system.cpu0.commit.vec_insts                        0                       # Number of committed Vector instructions.
system.cpu0.commit.fp_insts                 159990208                       # Number of committed floating point instructions.
system.cpu0.commit.int_insts                172902797                       # Number of committed integer instructions.
system.cpu0.commit.function_calls              933645                       # Number of function calls committed.
system.cpu0.commit.op_class_0::No_OpClass       204924      0.07%      0.07% # Class of committed instruction
system.cpu0.commit.op_class_0::IntAlu       139361180     49.87%     49.94% # Class of committed instruction
system.cpu0.commit.op_class_0::IntMult         301101      0.11%     50.05% # Class of committed instruction
system.cpu0.commit.op_class_0::IntDiv         1344329      0.48%     50.53% # Class of committed instruction
system.cpu0.commit.op_class_0::FloatAdd      74680813     26.72%     77.26% # Class of committed instruction
system.cpu0.commit.op_class_0::FloatCmp             0      0.00%     77.26% # Class of committed instruction
system.cpu0.commit.op_class_0::FloatCvt             0      0.00%     77.26% # Class of committed instruction
system.cpu0.commit.op_class_0::FloatMult            0      0.00%     77.26% # Class of committed instruction
system.cpu0.commit.op_class_0::FloatMultAcc            0      0.00%     77.26% # Class of committed instruction
system.cpu0.commit.op_class_0::FloatDiv             0      0.00%     77.26% # Class of committed instruction
system.cpu0.commit.op_class_0::FloatMisc            0      0.00%     77.26% # Class of committed instruction
system.cpu0.commit.op_class_0::FloatSqrt            0      0.00%     77.26% # Class of committed instruction
system.cpu0.commit.op_class_0::SimdAdd              0      0.00%     77.26% # Class of committed instruction
system.cpu0.commit.op_class_0::SimdAddAcc            0      0.00%     77.26% # Class of committed instruction
system.cpu0.commit.op_class_0::SimdAlu              0      0.00%     77.26% # Class of committed instruction
system.cpu0.commit.op_class_0::SimdCmp              0      0.00%     77.26% # Class of committed instruction
system.cpu0.commit.op_class_0::SimdCvt              0      0.00%     77.26% # Class of committed instruction
system.cpu0.commit.op_class_0::SimdMisc             0      0.00%     77.26% # Class of committed instruction
system.cpu0.commit.op_class_0::SimdMult             0      0.00%     77.26% # Class of committed instruction
system.cpu0.commit.op_class_0::SimdMultAcc            0      0.00%     77.26% # Class of committed instruction
system.cpu0.commit.op_class_0::SimdShift            0      0.00%     77.26% # Class of committed instruction
system.cpu0.commit.op_class_0::SimdShiftAcc            0      0.00%     77.26% # Class of committed instruction
system.cpu0.commit.op_class_0::SimdSqrt             0      0.00%     77.26% # Class of committed instruction
system.cpu0.commit.op_class_0::SimdFloatAdd            0      0.00%     77.26% # Class of committed instruction
system.cpu0.commit.op_class_0::SimdFloatAlu            0      0.00%     77.26% # Class of committed instruction
system.cpu0.commit.op_class_0::SimdFloatCmp            0      0.00%     77.26% # Class of committed instruction
system.cpu0.commit.op_class_0::SimdFloatCvt            0      0.00%     77.26% # Class of committed instruction
system.cpu0.commit.op_class_0::SimdFloatDiv            0      0.00%     77.26% # Class of committed instruction
system.cpu0.commit.op_class_0::SimdFloatMisc            0      0.00%     77.26% # Class of committed instruction
system.cpu0.commit.op_class_0::SimdFloatMult            0      0.00%     77.26% # Class of committed instruction
system.cpu0.commit.op_class_0::SimdFloatMultAcc            0      0.00%     77.26% # Class of committed instruction
system.cpu0.commit.op_class_0::SimdFloatSqrt            0      0.00%     77.26% # Class of committed instruction
system.cpu0.commit.op_class_0::MemRead        7130524      2.55%     79.81% # Class of committed instruction
system.cpu0.commit.op_class_0::MemWrite       3128562      1.12%     80.93% # Class of committed instruction
system.cpu0.commit.op_class_0::FloatMemRead     41914793     15.00%     95.93% # Class of committed instruction
system.cpu0.commit.op_class_0::FloatMemWrite     11381306      4.07%    100.00% # Class of committed instruction
system.cpu0.commit.op_class_0::IprAccess            0      0.00%    100.00% # Class of committed instruction
system.cpu0.commit.op_class_0::InstPrefetch            0      0.00%    100.00% # Class of committed instruction
system.cpu0.commit.op_class_0::total        279447532                       # Class of committed instruction
system.cpu0.commit.bw_lim_events             21610681                       # number cycles where commit BW limit reached
system.cpu0.rob.rob_reads                   546129645                       # The number of ROB reads
system.cpu0.rob.rob_writes                  575359609                       # The number of ROB writes
system.cpu0.timesIdled                           1189                       # Number of times that the entire CPU went into an idle state and unscheduled itself
system.cpu0.idleCycles                         178013                       # Total number of cycles that the CPU has spent unscheduled due to idling
system.cpu0.committedInsts                  200000001                       # Number of Instructions Simulated
system.cpu0.committedOps                    279447532                       # Number of Ops (including micro ops) Simulated
system.cpu0.cpi                              1.409155                       # CPI: Cycles Per Instruction
system.cpu0.cpi_total                        1.409155                       # CPI: Total CPI of All Threads
system.cpu0.ipc                              0.709645                       # IPC: Instructions Per Cycle
system.cpu0.ipc_total                        0.709645                       # IPC: Total IPC of All Threads
system.cpu0.int_regfile_reads               275676025                       # number of integer regfile reads
system.cpu0.int_regfile_writes              110983155                       # number of integer regfile writes
system.cpu0.fp_regfile_reads                298574189                       # number of floating regfile reads
system.cpu0.fp_regfile_writes               149219271                       # number of floating regfile writes
system.cpu0.cc_regfile_reads                 61619250                       # number of cc regfile reads
system.cpu0.cc_regfile_writes                72083906                       # number of cc regfile writes
system.cpu0.misc_regfile_reads               93117373                       # number of misc regfile reads
system.cpu0.dcache.tags.pwrStateResidencyTicks::UNDEFINED  93849690033                       # Cumulative time (in ticks) in various power states
system.cpu0.dcache.tags.replacements          2617077                       # number of replacements
system.cpu0.dcache.tags.tagsinuse          511.811932                       # Cycle average of tags in use
system.cpu0.dcache.tags.total_refs           51410935                       # Total number of references to valid blocks.
system.cpu0.dcache.tags.sampled_refs          2617589                       # Sample count of references to valid blocks.
system.cpu0.dcache.tags.avg_refs            19.640568                       # Average number of references to valid blocks.
system.cpu0.dcache.tags.warmup_cycle           150183                       # Cycle when the warmup percentage was hit.
system.cpu0.dcache.tags.occ_blocks::cpu0.data   511.811932                       # Average occupied blocks per requestor
system.cpu0.dcache.tags.occ_percent::cpu0.data     0.999633                       # Average percentage of cache occupancy
system.cpu0.dcache.tags.occ_percent::total     0.999633                       # Average percentage of cache occupancy
system.cpu0.dcache.tags.occ_task_id_blocks::1024          512                       # Occupied blocks per task id
system.cpu0.dcache.tags.age_task_id_blocks_1024::0          155                       # Occupied blocks per task id
system.cpu0.dcache.tags.age_task_id_blocks_1024::1          351                       # Occupied blocks per task id
system.cpu0.dcache.tags.age_task_id_blocks_1024::2            6                       # Occupied blocks per task id
system.cpu0.dcache.tags.occ_task_id_percent::1024            1                       # Percentage of cache occupancy per task id
system.cpu0.dcache.tags.tag_accesses        498384229                       # Number of tag accesses
system.cpu0.dcache.tags.data_accesses       498384229                       # Number of data accesses
system.cpu0.dcache.pwrStateResidencyTicks::UNDEFINED  93849690033                       # Cumulative time (in ticks) in various power states
system.cpu0.dcache.ReadReq_hits::cpu0.data     37482350                       # number of ReadReq hits
system.cpu0.dcache.ReadReq_hits::total       37482350                       # number of ReadReq hits
system.cpu0.dcache.WriteReq_hits::cpu0.data     13699573                       # number of WriteReq hits
system.cpu0.dcache.WriteReq_hits::total      13699573                       # number of WriteReq hits
system.cpu0.dcache.demand_hits::cpu0.data     51181923                       # number of demand (read+write) hits
system.cpu0.dcache.demand_hits::total        51181923                       # number of demand (read+write) hits
system.cpu0.dcache.overall_hits::cpu0.data     51181923                       # number of overall hits
system.cpu0.dcache.overall_hits::total       51181923                       # number of overall hits
system.cpu0.dcache.ReadReq_misses::cpu0.data      9978596                       # number of ReadReq misses
system.cpu0.dcache.ReadReq_misses::total      9978596                       # number of ReadReq misses
system.cpu0.dcache.WriteReq_misses::cpu0.data       810311                       # number of WriteReq misses
system.cpu0.dcache.WriteReq_misses::total       810311                       # number of WriteReq misses
system.cpu0.dcache.demand_misses::cpu0.data     10788907                       # number of demand (read+write) misses
system.cpu0.dcache.demand_misses::total      10788907                       # number of demand (read+write) misses
system.cpu0.dcache.overall_misses::cpu0.data     10788907                       # number of overall misses
system.cpu0.dcache.overall_misses::total     10788907                       # number of overall misses
system.cpu0.dcache.ReadReq_miss_latency::cpu0.data 545404788261                       # number of ReadReq miss cycles
system.cpu0.dcache.ReadReq_miss_latency::total 545404788261                       # number of ReadReq miss cycles
system.cpu0.dcache.WriteReq_miss_latency::cpu0.data  30825587428                       # number of WriteReq miss cycles
system.cpu0.dcache.WriteReq_miss_latency::total  30825587428                       # number of WriteReq miss cycles
system.cpu0.dcache.demand_miss_latency::cpu0.data 576230375689                       # number of demand (read+write) miss cycles
system.cpu0.dcache.demand_miss_latency::total 576230375689                       # number of demand (read+write) miss cycles
system.cpu0.dcache.overall_miss_latency::cpu0.data 576230375689                       # number of overall miss cycles
system.cpu0.dcache.overall_miss_latency::total 576230375689                       # number of overall miss cycles
system.cpu0.dcache.ReadReq_accesses::cpu0.data     47460946                       # number of ReadReq accesses(hits+misses)
system.cpu0.dcache.ReadReq_accesses::total     47460946                       # number of ReadReq accesses(hits+misses)
system.cpu0.dcache.WriteReq_accesses::cpu0.data     14509884                       # number of WriteReq accesses(hits+misses)
system.cpu0.dcache.WriteReq_accesses::total     14509884                       # number of WriteReq accesses(hits+misses)
system.cpu0.dcache.demand_accesses::cpu0.data     61970830                       # number of demand (read+write) accesses
system.cpu0.dcache.demand_accesses::total     61970830                       # number of demand (read+write) accesses
system.cpu0.dcache.overall_accesses::cpu0.data     61970830                       # number of overall (read+write) accesses
system.cpu0.dcache.overall_accesses::total     61970830                       # number of overall (read+write) accesses
system.cpu0.dcache.ReadReq_miss_rate::cpu0.data     0.210249                       # miss rate for ReadReq accesses
system.cpu0.dcache.ReadReq_miss_rate::total     0.210249                       # miss rate for ReadReq accesses
system.cpu0.dcache.WriteReq_miss_rate::cpu0.data     0.055845                       # miss rate for WriteReq accesses
system.cpu0.dcache.WriteReq_miss_rate::total     0.055845                       # miss rate for WriteReq accesses
system.cpu0.dcache.demand_miss_rate::cpu0.data     0.174097                       # miss rate for demand accesses
system.cpu0.dcache.demand_miss_rate::total     0.174097                       # miss rate for demand accesses
system.cpu0.dcache.overall_miss_rate::cpu0.data     0.174097                       # miss rate for overall accesses
system.cpu0.dcache.overall_miss_rate::total     0.174097                       # miss rate for overall accesses
system.cpu0.dcache.ReadReq_avg_miss_latency::cpu0.data 54657.467670                       # average ReadReq miss latency
system.cpu0.dcache.ReadReq_avg_miss_latency::total 54657.467670                       # average ReadReq miss latency
system.cpu0.dcache.WriteReq_avg_miss_latency::cpu0.data 38041.674651                       # average WriteReq miss latency
system.cpu0.dcache.WriteReq_avg_miss_latency::total 38041.674651                       # average WriteReq miss latency
system.cpu0.dcache.demand_avg_miss_latency::cpu0.data 53409.522919                       # average overall miss latency
system.cpu0.dcache.demand_avg_miss_latency::total 53409.522919                       # average overall miss latency
system.cpu0.dcache.overall_avg_miss_latency::cpu0.data 53409.522919                       # average overall miss latency
system.cpu0.dcache.overall_avg_miss_latency::total 53409.522919                       # average overall miss latency
system.cpu0.dcache.blocked_cycles::no_mshrs     34016460                       # number of cycles access was blocked
system.cpu0.dcache.blocked_cycles::no_targets           11                       # number of cycles access was blocked
system.cpu0.dcache.blocked::no_mshrs           634983                       # number of cycles access was blocked
system.cpu0.dcache.blocked::no_targets              1                       # number of cycles access was blocked
system.cpu0.dcache.avg_blocked_cycles::no_mshrs    53.570663                       # average number of cycles each access was blocked
system.cpu0.dcache.avg_blocked_cycles::no_targets           11                       # average number of cycles each access was blocked
system.cpu0.dcache.writebacks::writebacks      1078108                       # number of writebacks
system.cpu0.dcache.writebacks::total          1078108                       # number of writebacks
system.cpu0.dcache.ReadReq_mshr_hits::cpu0.data      7952904                       # number of ReadReq MSHR hits
system.cpu0.dcache.ReadReq_mshr_hits::total      7952904                       # number of ReadReq MSHR hits
system.cpu0.dcache.WriteReq_mshr_hits::cpu0.data          292                       # number of WriteReq MSHR hits
system.cpu0.dcache.WriteReq_mshr_hits::total          292                       # number of WriteReq MSHR hits
system.cpu0.dcache.demand_mshr_hits::cpu0.data      7953196                       # number of demand (read+write) MSHR hits
system.cpu0.dcache.demand_mshr_hits::total      7953196                       # number of demand (read+write) MSHR hits
system.cpu0.dcache.overall_mshr_hits::cpu0.data      7953196                       # number of overall MSHR hits
system.cpu0.dcache.overall_mshr_hits::total      7953196                       # number of overall MSHR hits
system.cpu0.dcache.ReadReq_mshr_misses::cpu0.data      2025692                       # number of ReadReq MSHR misses
system.cpu0.dcache.ReadReq_mshr_misses::total      2025692                       # number of ReadReq MSHR misses
system.cpu0.dcache.WriteReq_mshr_misses::cpu0.data       810019                       # number of WriteReq MSHR misses
system.cpu0.dcache.WriteReq_mshr_misses::total       810019                       # number of WriteReq MSHR misses
system.cpu0.dcache.demand_mshr_misses::cpu0.data      2835711                       # number of demand (read+write) MSHR misses
system.cpu0.dcache.demand_mshr_misses::total      2835711                       # number of demand (read+write) MSHR misses
system.cpu0.dcache.overall_mshr_misses::cpu0.data      2835711                       # number of overall MSHR misses
system.cpu0.dcache.overall_mshr_misses::total      2835711                       # number of overall MSHR misses
system.cpu0.dcache.ReadReq_mshr_miss_latency::cpu0.data 132497584452                       # number of ReadReq MSHR miss cycles
system.cpu0.dcache.ReadReq_mshr_miss_latency::total 132497584452                       # number of ReadReq MSHR miss cycles
system.cpu0.dcache.WriteReq_mshr_miss_latency::cpu0.data  30278373857                       # number of WriteReq MSHR miss cycles
system.cpu0.dcache.WriteReq_mshr_miss_latency::total  30278373857                       # number of WriteReq MSHR miss cycles
system.cpu0.dcache.demand_mshr_miss_latency::cpu0.data 162775958309                       # number of demand (read+write) MSHR miss cycles
system.cpu0.dcache.demand_mshr_miss_latency::total 162775958309                       # number of demand (read+write) MSHR miss cycles
system.cpu0.dcache.overall_mshr_miss_latency::cpu0.data 162775958309                       # number of overall MSHR miss cycles
system.cpu0.dcache.overall_mshr_miss_latency::total 162775958309                       # number of overall MSHR miss cycles
system.cpu0.dcache.ReadReq_mshr_miss_rate::cpu0.data     0.042681                       # mshr miss rate for ReadReq accesses
system.cpu0.dcache.ReadReq_mshr_miss_rate::total     0.042681                       # mshr miss rate for ReadReq accesses
system.cpu0.dcache.WriteReq_mshr_miss_rate::cpu0.data     0.055825                       # mshr miss rate for WriteReq accesses
system.cpu0.dcache.WriteReq_mshr_miss_rate::total     0.055825                       # mshr miss rate for WriteReq accesses
system.cpu0.dcache.demand_mshr_miss_rate::cpu0.data     0.045759                       # mshr miss rate for demand accesses
system.cpu0.dcache.demand_mshr_miss_rate::total     0.045759                       # mshr miss rate for demand accesses
system.cpu0.dcache.overall_mshr_miss_rate::cpu0.data     0.045759                       # mshr miss rate for overall accesses
system.cpu0.dcache.overall_mshr_miss_rate::total     0.045759                       # mshr miss rate for overall accesses
system.cpu0.dcache.ReadReq_avg_mshr_miss_latency::cpu0.data 65408.553942                       # average ReadReq mshr miss latency
system.cpu0.dcache.ReadReq_avg_mshr_miss_latency::total 65408.553942                       # average ReadReq mshr miss latency
system.cpu0.dcache.WriteReq_avg_mshr_miss_latency::cpu0.data 37379.831655                       # average WriteReq mshr miss latency
system.cpu0.dcache.WriteReq_avg_mshr_miss_latency::total 37379.831655                       # average WriteReq mshr miss latency
system.cpu0.dcache.demand_avg_mshr_miss_latency::cpu0.data 57402.167678                       # average overall mshr miss latency
system.cpu0.dcache.demand_avg_mshr_miss_latency::total 57402.167678                       # average overall mshr miss latency
system.cpu0.dcache.overall_avg_mshr_miss_latency::cpu0.data 57402.167678                       # average overall mshr miss latency
system.cpu0.dcache.overall_avg_mshr_miss_latency::total 57402.167678                       # average overall mshr miss latency
system.cpu0.dtb_walker_cache.tags.pwrStateResidencyTicks::UNDEFINED  93849690033                       # Cumulative time (in ticks) in various power states
system.cpu0.dtb_walker_cache.tags.replacements            0                       # number of replacements
system.cpu0.dtb_walker_cache.tags.tagsinuse            0                       # Cycle average of tags in use
system.cpu0.dtb_walker_cache.tags.total_refs            0                       # Total number of references to valid blocks.
system.cpu0.dtb_walker_cache.tags.sampled_refs            0                       # Sample count of references to valid blocks.
system.cpu0.dtb_walker_cache.tags.avg_refs          nan                       # Average number of references to valid blocks.
system.cpu0.dtb_walker_cache.tags.warmup_cycle            0                       # Cycle when the warmup percentage was hit.
system.cpu0.dtb_walker_cache.tags.tag_accesses            0                       # Number of tag accesses
system.cpu0.dtb_walker_cache.tags.data_accesses            0                       # Number of data accesses
system.cpu0.dtb_walker_cache.pwrStateResidencyTicks::UNDEFINED  93849690033                       # Cumulative time (in ticks) in various power states
system.cpu0.dtb_walker_cache.blocked_cycles::no_mshrs            0                       # number of cycles access was blocked
system.cpu0.dtb_walker_cache.blocked_cycles::no_targets            0                       # number of cycles access was blocked
system.cpu0.dtb_walker_cache.blocked::no_mshrs            0                       # number of cycles access was blocked
system.cpu0.dtb_walker_cache.blocked::no_targets            0                       # number of cycles access was blocked
system.cpu0.dtb_walker_cache.avg_blocked_cycles::no_mshrs          nan                       # average number of cycles each access was blocked
system.cpu0.dtb_walker_cache.avg_blocked_cycles::no_targets          nan                       # average number of cycles each access was blocked
system.cpu0.icache.tags.pwrStateResidencyTicks::UNDEFINED  93849690033                       # Cumulative time (in ticks) in various power states
system.cpu0.icache.tags.replacements             2552                       # number of replacements
system.cpu0.icache.tags.tagsinuse          511.912467                       # Cycle average of tags in use
system.cpu0.icache.tags.total_refs           21263850                       # Total number of references to valid blocks.
system.cpu0.icache.tags.sampled_refs             3064                       # Sample count of references to valid blocks.
system.cpu0.icache.tags.avg_refs          6939.898825                       # Average number of references to valid blocks.
system.cpu0.icache.tags.warmup_cycle            76257                       # Cycle when the warmup percentage was hit.
system.cpu0.icache.tags.occ_blocks::cpu0.inst   511.912467                       # Average occupied blocks per requestor
system.cpu0.icache.tags.occ_percent::cpu0.inst     0.999829                       # Average percentage of cache occupancy
system.cpu0.icache.tags.occ_percent::total     0.999829                       # Average percentage of cache occupancy
system.cpu0.icache.tags.occ_task_id_blocks::1024          512                       # Occupied blocks per task id
system.cpu0.icache.tags.age_task_id_blocks_1024::4          512                       # Occupied blocks per task id
system.cpu0.icache.tags.occ_task_id_percent::1024            1                       # Percentage of cache occupancy per task id
system.cpu0.icache.tags.tag_accesses        170143736                       # Number of tag accesses
system.cpu0.icache.tags.data_accesses       170143736                       # Number of data accesses
system.cpu0.icache.pwrStateResidencyTicks::UNDEFINED  93849690033                       # Cumulative time (in ticks) in various power states
system.cpu0.icache.ReadReq_hits::cpu0.inst     21263850                       # number of ReadReq hits
system.cpu0.icache.ReadReq_hits::total       21263850                       # number of ReadReq hits
system.cpu0.icache.demand_hits::cpu0.inst     21263850                       # number of demand (read+write) hits
system.cpu0.icache.demand_hits::total        21263850                       # number of demand (read+write) hits
system.cpu0.icache.overall_hits::cpu0.inst     21263850                       # number of overall hits
system.cpu0.icache.overall_hits::total       21263850                       # number of overall hits
system.cpu0.icache.ReadReq_misses::cpu0.inst         3734                       # number of ReadReq misses
system.cpu0.icache.ReadReq_misses::total         3734                       # number of ReadReq misses
system.cpu0.icache.demand_misses::cpu0.inst         3734                       # number of demand (read+write) misses
system.cpu0.icache.demand_misses::total          3734                       # number of demand (read+write) misses
system.cpu0.icache.overall_misses::cpu0.inst         3734                       # number of overall misses
system.cpu0.icache.overall_misses::total         3734                       # number of overall misses
system.cpu0.icache.ReadReq_miss_latency::cpu0.inst    188559915                       # number of ReadReq miss cycles
system.cpu0.icache.ReadReq_miss_latency::total    188559915                       # number of ReadReq miss cycles
system.cpu0.icache.demand_miss_latency::cpu0.inst    188559915                       # number of demand (read+write) miss cycles
system.cpu0.icache.demand_miss_latency::total    188559915                       # number of demand (read+write) miss cycles
system.cpu0.icache.overall_miss_latency::cpu0.inst    188559915                       # number of overall miss cycles
system.cpu0.icache.overall_miss_latency::total    188559915                       # number of overall miss cycles
system.cpu0.icache.ReadReq_accesses::cpu0.inst     21267584                       # number of ReadReq accesses(hits+misses)
system.cpu0.icache.ReadReq_accesses::total     21267584                       # number of ReadReq accesses(hits+misses)
system.cpu0.icache.demand_accesses::cpu0.inst     21267584                       # number of demand (read+write) accesses
system.cpu0.icache.demand_accesses::total     21267584                       # number of demand (read+write) accesses
system.cpu0.icache.overall_accesses::cpu0.inst     21267584                       # number of overall (read+write) accesses
system.cpu0.icache.overall_accesses::total     21267584                       # number of overall (read+write) accesses
system.cpu0.icache.ReadReq_miss_rate::cpu0.inst     0.000176                       # miss rate for ReadReq accesses
system.cpu0.icache.ReadReq_miss_rate::total     0.000176                       # miss rate for ReadReq accesses
system.cpu0.icache.demand_miss_rate::cpu0.inst     0.000176                       # miss rate for demand accesses
system.cpu0.icache.demand_miss_rate::total     0.000176                       # miss rate for demand accesses
system.cpu0.icache.overall_miss_rate::cpu0.inst     0.000176                       # miss rate for overall accesses
system.cpu0.icache.overall_miss_rate::total     0.000176                       # miss rate for overall accesses
system.cpu0.icache.ReadReq_avg_miss_latency::cpu0.inst 50498.102571                       # average ReadReq miss latency
system.cpu0.icache.ReadReq_avg_miss_latency::total 50498.102571                       # average ReadReq miss latency
system.cpu0.icache.demand_avg_miss_latency::cpu0.inst 50498.102571                       # average overall miss latency
system.cpu0.icache.demand_avg_miss_latency::total 50498.102571                       # average overall miss latency
system.cpu0.icache.overall_avg_miss_latency::cpu0.inst 50498.102571                       # average overall miss latency
system.cpu0.icache.overall_avg_miss_latency::total 50498.102571                       # average overall miss latency
system.cpu0.icache.blocked_cycles::no_mshrs         3298                       # number of cycles access was blocked
system.cpu0.icache.blocked_cycles::no_targets            0                       # number of cycles access was blocked
system.cpu0.icache.blocked::no_mshrs               39                       # number of cycles access was blocked
system.cpu0.icache.blocked::no_targets              0                       # number of cycles access was blocked
system.cpu0.icache.avg_blocked_cycles::no_mshrs    84.564103                       # average number of cycles each access was blocked
system.cpu0.icache.avg_blocked_cycles::no_targets          nan                       # average number of cycles each access was blocked
system.cpu0.icache.writebacks::writebacks         2552                       # number of writebacks
system.cpu0.icache.writebacks::total             2552                       # number of writebacks
system.cpu0.icache.ReadReq_mshr_hits::cpu0.inst          670                       # number of ReadReq MSHR hits
system.cpu0.icache.ReadReq_mshr_hits::total          670                       # number of ReadReq MSHR hits
system.cpu0.icache.demand_mshr_hits::cpu0.inst          670                       # number of demand (read+write) MSHR hits
system.cpu0.icache.demand_mshr_hits::total          670                       # number of demand (read+write) MSHR hits
system.cpu0.icache.overall_mshr_hits::cpu0.inst          670                       # number of overall MSHR hits
system.cpu0.icache.overall_mshr_hits::total          670                       # number of overall MSHR hits
system.cpu0.icache.ReadReq_mshr_misses::cpu0.inst         3064                       # number of ReadReq MSHR misses
system.cpu0.icache.ReadReq_mshr_misses::total         3064                       # number of ReadReq MSHR misses
system.cpu0.icache.demand_mshr_misses::cpu0.inst         3064                       # number of demand (read+write) MSHR misses
system.cpu0.icache.demand_mshr_misses::total         3064                       # number of demand (read+write) MSHR misses
system.cpu0.icache.overall_mshr_misses::cpu0.inst         3064                       # number of overall MSHR misses
system.cpu0.icache.overall_mshr_misses::total         3064                       # number of overall MSHR misses
system.cpu0.icache.ReadReq_mshr_miss_latency::cpu0.inst    151303543                       # number of ReadReq MSHR miss cycles
system.cpu0.icache.ReadReq_mshr_miss_latency::total    151303543                       # number of ReadReq MSHR miss cycles
system.cpu0.icache.demand_mshr_miss_latency::cpu0.inst    151303543                       # number of demand (read+write) MSHR miss cycles
system.cpu0.icache.demand_mshr_miss_latency::total    151303543                       # number of demand (read+write) MSHR miss cycles
system.cpu0.icache.overall_mshr_miss_latency::cpu0.inst    151303543                       # number of overall MSHR miss cycles
system.cpu0.icache.overall_mshr_miss_latency::total    151303543                       # number of overall MSHR miss cycles
system.cpu0.icache.ReadReq_mshr_miss_rate::cpu0.inst     0.000144                       # mshr miss rate for ReadReq accesses
system.cpu0.icache.ReadReq_mshr_miss_rate::total     0.000144                       # mshr miss rate for ReadReq accesses
system.cpu0.icache.demand_mshr_miss_rate::cpu0.inst     0.000144                       # mshr miss rate for demand accesses
system.cpu0.icache.demand_mshr_miss_rate::total     0.000144                       # mshr miss rate for demand accesses
system.cpu0.icache.overall_mshr_miss_rate::cpu0.inst     0.000144                       # mshr miss rate for overall accesses
system.cpu0.icache.overall_mshr_miss_rate::total     0.000144                       # mshr miss rate for overall accesses
system.cpu0.icache.ReadReq_avg_mshr_miss_latency::cpu0.inst 49381.051893                       # average ReadReq mshr miss latency
system.cpu0.icache.ReadReq_avg_mshr_miss_latency::total 49381.051893                       # average ReadReq mshr miss latency
system.cpu0.icache.demand_avg_mshr_miss_latency::cpu0.inst 49381.051893                       # average overall mshr miss latency
system.cpu0.icache.demand_avg_mshr_miss_latency::total 49381.051893                       # average overall mshr miss latency
system.cpu0.icache.overall_avg_mshr_miss_latency::cpu0.inst 49381.051893                       # average overall mshr miss latency
system.cpu0.icache.overall_avg_mshr_miss_latency::total 49381.051893                       # average overall mshr miss latency
system.cpu0.itb_walker_cache.tags.pwrStateResidencyTicks::UNDEFINED  93849690033                       # Cumulative time (in ticks) in various power states
system.cpu0.itb_walker_cache.tags.replacements            0                       # number of replacements
system.cpu0.itb_walker_cache.tags.tagsinuse            0                       # Cycle average of tags in use
system.cpu0.itb_walker_cache.tags.total_refs            0                       # Total number of references to valid blocks.
system.cpu0.itb_walker_cache.tags.sampled_refs            0                       # Sample count of references to valid blocks.
system.cpu0.itb_walker_cache.tags.avg_refs          nan                       # Average number of references to valid blocks.
system.cpu0.itb_walker_cache.tags.warmup_cycle            0                       # Cycle when the warmup percentage was hit.
system.cpu0.itb_walker_cache.tags.tag_accesses            0                       # Number of tag accesses
system.cpu0.itb_walker_cache.tags.data_accesses            0                       # Number of data accesses
system.cpu0.itb_walker_cache.pwrStateResidencyTicks::UNDEFINED  93849690033                       # Cumulative time (in ticks) in various power states
system.cpu0.itb_walker_cache.blocked_cycles::no_mshrs            0                       # number of cycles access was blocked
system.cpu0.itb_walker_cache.blocked_cycles::no_targets            0                       # number of cycles access was blocked
system.cpu0.itb_walker_cache.blocked::no_mshrs            0                       # number of cycles access was blocked
system.cpu0.itb_walker_cache.blocked::no_targets            0                       # number of cycles access was blocked
system.cpu0.itb_walker_cache.avg_blocked_cycles::no_mshrs          nan                       # average number of cycles each access was blocked
system.cpu0.itb_walker_cache.avg_blocked_cycles::no_targets          nan                       # average number of cycles each access was blocked
system.cpu0.l2cache.tags.pwrStateResidencyTicks::UNDEFINED  93849690033                       # Cumulative time (in ticks) in various power states
system.cpu0.l2cache.tags.replacements         2461243                       # number of replacements
system.cpu0.l2cache.tags.tagsinuse        4090.449598                       # Cycle average of tags in use
system.cpu0.l2cache.tags.total_refs           2992748                       # Total number of references to valid blocks.
system.cpu0.l2cache.tags.sampled_refs         2465339                       # Sample count of references to valid blocks.
system.cpu0.l2cache.tags.avg_refs            1.213930                       # Average number of references to valid blocks.
system.cpu0.l2cache.tags.warmup_cycle           73000                       # Cycle when the warmup percentage was hit.
system.cpu0.l2cache.tags.occ_blocks::writebacks    32.365251                       # Average occupied blocks per requestor
system.cpu0.l2cache.tags.occ_blocks::cpu0.inst    41.308047                       # Average occupied blocks per requestor
system.cpu0.l2cache.tags.occ_blocks::cpu0.data  4016.776300                       # Average occupied blocks per requestor
system.cpu0.l2cache.tags.occ_percent::writebacks     0.007902                       # Average percentage of cache occupancy
system.cpu0.l2cache.tags.occ_percent::cpu0.inst     0.010085                       # Average percentage of cache occupancy
system.cpu0.l2cache.tags.occ_percent::cpu0.data     0.980658                       # Average percentage of cache occupancy
system.cpu0.l2cache.tags.occ_percent::total     0.998645                       # Average percentage of cache occupancy
system.cpu0.l2cache.tags.occ_task_id_blocks::1024         4096                       # Occupied blocks per task id
system.cpu0.l2cache.tags.age_task_id_blocks_1024::0          349                       # Occupied blocks per task id
system.cpu0.l2cache.tags.age_task_id_blocks_1024::1          700                       # Occupied blocks per task id
system.cpu0.l2cache.tags.age_task_id_blocks_1024::2         2817                       # Occupied blocks per task id
system.cpu0.l2cache.tags.age_task_id_blocks_1024::3          230                       # Occupied blocks per task id
system.cpu0.l2cache.tags.occ_task_id_percent::1024            1                       # Percentage of cache occupancy per task id
system.cpu0.l2cache.tags.tag_accesses        24298911                       # Number of tag accesses
system.cpu0.l2cache.tags.data_accesses       24298911                       # Number of data accesses
system.cpu0.l2cache.pwrStateResidencyTicks::UNDEFINED  93849690033                       # Cumulative time (in ticks) in various power states
system.cpu0.l2cache.WritebackDirty_hits::writebacks      1078108                       # number of WritebackDirty hits
system.cpu0.l2cache.WritebackDirty_hits::total      1078108                       # number of WritebackDirty hits
system.cpu0.l2cache.WritebackClean_hits::writebacks         2548                       # number of WritebackClean hits
system.cpu0.l2cache.WritebackClean_hits::total         2548                       # number of WritebackClean hits
system.cpu0.l2cache.UpgradeReq_hits::cpu0.data       218122                       # number of UpgradeReq hits
system.cpu0.l2cache.UpgradeReq_hits::total       218122                       # number of UpgradeReq hits
system.cpu0.l2cache.ReadExReq_hits::cpu0.data        67059                       # number of ReadExReq hits
system.cpu0.l2cache.ReadExReq_hits::total        67059                       # number of ReadExReq hits
system.cpu0.l2cache.ReadCleanReq_hits::cpu0.inst          951                       # number of ReadCleanReq hits
system.cpu0.l2cache.ReadCleanReq_hits::total          951                       # number of ReadCleanReq hits
system.cpu0.l2cache.ReadSharedReq_hits::cpu0.data        88805                       # number of ReadSharedReq hits
system.cpu0.l2cache.ReadSharedReq_hits::total        88805                       # number of ReadSharedReq hits
system.cpu0.l2cache.demand_hits::cpu0.inst          951                       # number of demand (read+write) hits
system.cpu0.l2cache.demand_hits::cpu0.data       155864                       # number of demand (read+write) hits
system.cpu0.l2cache.demand_hits::total         156815                       # number of demand (read+write) hits
[...]
system.l3.demand_mshr_miss_latency::cpu3.inst    112664344                       # number of demand (read+write) MSHR miss cycles
system.l3.demand_mshr_miss_latency::cpu3.data 122002064650                       # number of demand (read+write) MSHR miss cycles
system.l3.demand_mshr_miss_latency::total 486348710257                       # number of demand (read+write) MSHR miss cycles
system.l3.overall_mshr_miss_latency::cpu0.inst    114273216                       # number of overall MSHR miss cycles
system.l3.overall_mshr_miss_latency::cpu0.data 121203105833                       # number of overall MSHR miss cycles
system.l3.overall_mshr_miss_latency::cpu1.inst    112234053                       # number of overall MSHR miss cycles
system.l3.overall_mshr_miss_latency::cpu1.data 121369928905                       # number of overall MSHR miss cycles
system.l3.overall_mshr_miss_latency::cpu2.inst    115428172                       # number of overall MSHR miss cycles
system.l3.overall_mshr_miss_latency::cpu2.data 121319011084                       # number of overall MSHR miss cycles
system.l3.overall_mshr_miss_latency::cpu3.inst    112664344                       # number of overall MSHR miss cycles
system.l3.overall_mshr_miss_latency::cpu3.data 122002064650                       # number of overall MSHR miss cycles
system.l3.overall_mshr_miss_latency::total 486348710257                       # number of overall MSHR miss cycles
system.l3.CleanEvict_mshr_miss_rate::writebacks          inf                       # mshr miss rate for CleanEvict accesses
system.l3.CleanEvict_mshr_miss_rate::total          inf                       # mshr miss rate for CleanEvict accesses
system.l3.ReadExReq_mshr_miss_rate::cpu0.data     0.571727                       # mshr miss rate for ReadExReq accesses
system.l3.ReadExReq_mshr_miss_rate::cpu1.data     0.585016                       # mshr miss rate for ReadExReq accesses
system.l3.ReadExReq_mshr_miss_rate::cpu2.data     0.596229                       # mshr miss rate for ReadExReq accesses
system.l3.ReadExReq_mshr_miss_rate::cpu3.data     0.596988                       # mshr miss rate for ReadExReq accesses
system.l3.ReadExReq_mshr_miss_rate::total     0.587342                       # mshr miss rate for ReadExReq accesses
system.l3.ReadSharedReq_mshr_miss_rate::cpu0.inst     0.913393                       # mshr miss rate for ReadSharedReq accesses
system.l3.ReadSharedReq_mshr_miss_rate::cpu0.data     0.777240                       # mshr miss rate for ReadSharedReq accesses
system.l3.ReadSharedReq_mshr_miss_rate::cpu1.inst     0.909005                       # mshr miss rate for ReadSharedReq accesses
system.l3.ReadSharedReq_mshr_miss_rate::cpu1.data     0.771998                       # mshr miss rate for ReadSharedReq accesses
system.l3.ReadSharedReq_mshr_miss_rate::cpu2.inst     0.916114                       # mshr miss rate for ReadSharedReq accesses
system.l3.ReadSharedReq_mshr_miss_rate::cpu2.data     0.775955                       # mshr miss rate for ReadSharedReq accesses
system.l3.ReadSharedReq_mshr_miss_rate::cpu3.inst     0.914408                       # mshr miss rate for ReadSharedReq accesses
system.l3.ReadSharedReq_mshr_miss_rate::cpu3.data     0.774819                       # mshr miss rate for ReadSharedReq accesses
system.l3.ReadSharedReq_mshr_miss_rate::total     0.775155                       # mshr miss rate for ReadSharedReq accesses
system.l3.demand_mshr_miss_rate::cpu0.inst     0.913393                       # mshr miss rate for demand accesses
system.l3.demand_mshr_miss_rate::cpu0.data     0.733425                       # mshr miss rate for demand accesses
system.l3.demand_mshr_miss_rate::cpu1.inst     0.909005                       # mshr miss rate for demand accesses
system.l3.demand_mshr_miss_rate::cpu1.data     0.732607                       # mshr miss rate for demand accesses
system.l3.demand_mshr_miss_rate::cpu2.inst     0.916114                       # mshr miss rate for demand accesses
system.l3.demand_mshr_miss_rate::cpu2.data     0.738562                       # mshr miss rate for demand accesses
system.l3.demand_mshr_miss_rate::cpu3.inst     0.914408                       # mshr miss rate for demand accesses
system.l3.demand_mshr_miss_rate::cpu3.data     0.737927                       # mshr miss rate for demand accesses
system.l3.demand_mshr_miss_rate::total       0.735776                       # mshr miss rate for demand accesses
system.l3.overall_mshr_miss_rate::cpu0.inst     0.913393                       # mshr miss rate for overall accesses
system.l3.overall_mshr_miss_rate::cpu0.data     0.733425                       # mshr miss rate for overall accesses
system.l3.overall_mshr_miss_rate::cpu1.inst     0.909005                       # mshr miss rate for overall accesses
system.l3.overall_mshr_miss_rate::cpu1.data     0.732607                       # mshr miss rate for overall accesses
system.l3.overall_mshr_miss_rate::cpu2.inst     0.916114                       # mshr miss rate for overall accesses
system.l3.overall_mshr_miss_rate::cpu2.data     0.738562                       # mshr miss rate for overall accesses
system.l3.overall_mshr_miss_rate::cpu3.inst     0.914408                       # mshr miss rate for overall accesses
system.l3.overall_mshr_miss_rate::cpu3.data     0.737927                       # mshr miss rate for overall accesses
system.l3.overall_mshr_miss_rate::total      0.735776                       # mshr miss rate for overall accesses
system.l3.ReadExReq_avg_mshr_miss_latency::cpu0.data 68941.808987                       # average ReadExReq mshr miss latency
system.l3.ReadExReq_avg_mshr_miss_latency::cpu1.data 70010.954162                       # average ReadExReq mshr miss latency
system.l3.ReadExReq_avg_mshr_miss_latency::cpu2.data 70016.931648                       # average ReadExReq mshr miss latency
system.l3.ReadExReq_avg_mshr_miss_latency::cpu3.data 69998.805992                       # average ReadExReq mshr miss latency
system.l3.ReadExReq_avg_mshr_miss_latency::total 69743.498098                       # average ReadExReq mshr miss latency
system.l3.ReadSharedReq_avg_mshr_miss_latency::cpu0.inst 59208.920207                       # average ReadSharedReq mshr miss latency
system.l3.ReadSharedReq_avg_mshr_miss_latency::cpu0.data 66769.196288                       # average ReadSharedReq mshr miss latency
system.l3.ReadSharedReq_avg_mshr_miss_latency::cpu1.inst 58516.190302                       # average ReadSharedReq mshr miss latency
system.l3.ReadSharedReq_avg_mshr_miss_latency::cpu1.data 67247.003018                       # average ReadSharedReq mshr miss latency
system.l3.ReadSharedReq_avg_mshr_miss_latency::cpu2.inst 59714.522504                       # average ReadSharedReq mshr miss latency
system.l3.ReadSharedReq_avg_mshr_miss_latency::cpu2.data 66856.256686                       # average ReadSharedReq mshr miss latency
system.l3.ReadSharedReq_avg_mshr_miss_latency::cpu3.inst 58587.802392                       # average ReadSharedReq mshr miss latency
system.l3.ReadSharedReq_avg_mshr_miss_latency::cpu3.data 67226.563617                       # average ReadSharedReq mshr miss latency
system.l3.ReadSharedReq_avg_mshr_miss_latency::total 67013.949192                       # average ReadSharedReq mshr miss latency
system.l3.demand_avg_mshr_miss_latency::cpu0.inst 59208.920207                       # average overall mshr miss latency
system.l3.demand_avg_mshr_miss_latency::cpu0.data 67130.274165                       # average overall mshr miss latency
system.l3.demand_avg_mshr_miss_latency::cpu1.inst 58516.190302                       # average overall mshr miss latency
system.l3.demand_avg_mshr_miss_latency::cpu1.data 67711.978118                       # average overall mshr miss latency
system.l3.demand_avg_mshr_miss_latency::cpu2.inst 59714.522504                       # average overall mshr miss latency
system.l3.demand_avg_mshr_miss_latency::cpu2.data 67387.133732                       # average overall mshr miss latency
system.l3.demand_avg_mshr_miss_latency::cpu3.inst 58587.802392                       # average overall mshr miss latency
system.l3.demand_avg_mshr_miss_latency::cpu3.data 67691.827987                       # average overall mshr miss latency
system.l3.demand_avg_mshr_miss_latency::total 67470.803073                       # average overall mshr miss latency
system.l3.overall_avg_mshr_miss_latency::cpu0.inst 59208.920207                       # average overall mshr miss latency
system.l3.overall_avg_mshr_miss_latency::cpu0.data 67130.274165                       # average overall mshr miss latency
system.l3.overall_avg_mshr_miss_latency::cpu1.inst 58516.190302                       # average overall mshr miss latency
system.l3.overall_avg_mshr_miss_latency::cpu1.data 67711.978118                       # average overall mshr miss latency
system.l3.overall_avg_mshr_miss_latency::cpu2.inst 59714.522504                       # average overall mshr miss latency
system.l3.overall_avg_mshr_miss_latency::cpu2.data 67387.133732                       # average overall mshr miss latency
system.l3.overall_avg_mshr_miss_latency::cpu3.inst 58587.802392                       # average overall mshr miss latency
system.l3.overall_avg_mshr_miss_latency::cpu3.data 67691.827987                       # average overall mshr miss latency
system.l3.overall_avg_mshr_miss_latency::total 67470.803073                       # average overall mshr miss latency
system.membus.snoop_filter.tot_requests      14283650                       # Total number of requests made to the snoop filter.
system.membus.snoop_filter.hit_single_requests      7075369                       # Number of requests hitting in the snoop filter with a single holder of the requested data.
system.membus.snoop_filter.hit_multi_requests            0                       # Number of requests hitting in the snoop filter with multiple (>1) holders of the requested data.
system.membus.snoop_filter.tot_snoops               0                       # Total number of snoops made to the snoop filter.
system.membus.snoop_filter.hit_single_snoops            0                       # Number of snoops hitting in the snoop filter with a single holder of the requested data.
system.membus.snoop_filter.hit_multi_snoops            0                       # Number of snoops hitting in the snoop filter with multiple (>1) holders of the requested data.
system.membus.pwrStateResidencyTicks::UNDEFINED  93849690033                       # Cumulative time (in ticks) in various power states
system.membus.trans_dist::ReadResp            6001806                       # Transaction distribution
system.membus.trans_dist::WritebackDirty      1928254                       # Transaction distribution
system.membus.trans_dist::CleanEvict          5147113                       # Transaction distribution
system.membus.trans_dist::ReadExReq           1206475                       # Transaction distribution
system.membus.trans_dist::ReadExResp          1206475                       # Transaction distribution
system.membus.trans_dist::ReadSharedReq       6001808                       # Transaction distribution
system.membus.pkt_count_system.l3.mem_side::system.mem_ctrls.port     21491931                       # Packet count per connected master and slave (bytes)
system.membus.pkt_count_system.l3.mem_side::total     21491931                       # Packet count per connected master and slave (bytes)
system.membus.pkt_count::total               21491931                       # Packet count per connected master and slave (bytes)
system.membus.pkt_size_system.l3.mem_side::system.mem_ctrls.port    584738240                       # Cumulative packet size per connected master and slave (bytes)
system.membus.pkt_size_system.l3.mem_side::total    584738240                       # Cumulative packet size per connected master and slave (bytes)
system.membus.pkt_size::total               584738240                       # Cumulative packet size per connected master and slave (bytes)
system.membus.snoops                                0                       # Total snoops (count)
system.membus.snoopTraffic                          0                       # Total snoop traffic (bytes)
system.membus.snoop_fanout::samples           7208283                       # Request fanout histogram
system.membus.snoop_fanout::mean                    0                       # Request fanout histogram
system.membus.snoop_fanout::stdev                   0                       # Request fanout histogram
system.membus.snoop_fanout::underflows              0      0.00%      0.00% # Request fanout histogram
system.membus.snoop_fanout::0                 7208283    100.00%    100.00% # Request fanout histogram
system.membus.snoop_fanout::1                       0      0.00%    100.00% # Request fanout histogram
system.membus.snoop_fanout::overflows               0      0.00%    100.00% # Request fanout histogram
system.membus.snoop_fanout::min_value               0                       # Request fanout histogram
system.membus.snoop_fanout::max_value               0                       # Request fanout histogram
system.membus.snoop_fanout::total             7208283                       # Request fanout histogram
system.membus.reqLayer8.occupancy         24115907404                       # Layer occupancy (ticks)
system.membus.reqLayer8.utilization              25.7                       # Layer utilization (%)
system.membus.respLayer1.occupancy        37353752674                       # Layer occupancy (ticks)
system.membus.respLayer1.utilization             39.8                       # Layer utilization (%)
system.tol3bus.snoop_filter.tot_requests     19575680                       # Total number of requests made to the snoop filter.
system.tol3bus.snoop_filter.hit_single_requests      9778843                       # Number of requests hitting in the snoop filter with a single holder of the requested data.
system.tol3bus.snoop_filter.hit_multi_requests            0                       # Number of requests hitting in the snoop filter with multiple (>1) holders of the requested data.
system.tol3bus.snoop_filter.tot_snoops           5884                       # Total number of snoops made to the snoop filter.
system.tol3bus.snoop_filter.hit_single_snoops         5884                       # Number of snoops hitting in the snoop filter with a single holder of the requested data.
system.tol3bus.snoop_filter.hit_multi_snoops            0                       # Number of snoops hitting in the snoop filter with multiple (>1) holders of the requested data.
system.tol3bus.pwrStateResidencyTicks::UNDEFINED  93849690033                       # Cumulative time (in ticks) in various power states
system.tol3bus.trans_dist::ReadResp           7742714                       # Transaction distribution
system.tol3bus.trans_dist::WritebackDirty      6139992                       # Transaction distribution
system.tol3bus.trans_dist::CleanEvict        10718069                       # Transaction distribution
system.tol3bus.trans_dist::UpgradeReq               8                       # Transaction distribution
system.tol3bus.trans_dist::UpgradeResp              8                       # Transaction distribution
system.tol3bus.trans_dist::ReadExReq          2054126                       # Transaction distribution
system.tol3bus.trans_dist::ReadExResp         2054126                       # Transaction distribution
system.tol3bus.trans_dist::ReadSharedReq      7742719                       # Transaction distribution
system.tol3bus.pkt_count_system.cpu0.l2cache.mem_side::system.l3.cpu_side      7386993                       # Packet count per connected master and slave (bytes)
system.tol3bus.pkt_count_system.cpu1.l2cache.mem_side::system.l3.cpu_side      7341816                       # Packet count per connected master and slave (bytes)
system.tol3bus.pkt_count_system.cpu2.l2cache.mem_side::system.l3.cpu_side      7314708                       # Packet count per connected master and slave (bytes)
system.tol3bus.pkt_count_system.cpu3.l2cache.mem_side::system.l3.cpu_side      7329011                       # Packet count per connected master and slave (bytes)
system.tol3bus.pkt_count::total              29372528                       # Packet count per connected master and slave (bytes)
system.tol3bus.pkt_size_system.cpu0.l2cache.mem_side::system.l3.cpu_side    225179648                       # Cumulative packet size per connected master and slave (bytes)
system.tol3bus.pkt_size_system.cpu1.l2cache.mem_side::system.l3.cpu_side    224592256                       # Cumulative packet size per connected master and slave (bytes)
system.tol3bus.pkt_size_system.cpu2.l2cache.mem_side::system.l3.cpu_side    222752960                       # Cumulative packet size per connected master and slave (bytes)
system.tol3bus.pkt_size_system.cpu3.l2cache.mem_side::system.l3.cpu_side    224024128                       # Cumulative packet size per connected master and slave (bytes)
system.tol3bus.pkt_size::total              896548992                       # Cumulative packet size per connected master and slave (bytes)
system.tol3bus.snoops                         7079234                       # Total snoops (count)
system.tol3bus.snoopTraffic                 123408256                       # Total snoop traffic (bytes)
system.tol3bus.snoop_fanout::samples         16876087                       # Request fanout histogram
system.tol3bus.snoop_fanout::mean            0.000349                       # Request fanout histogram
system.tol3bus.snoop_fanout::stdev           0.018669                       # Request fanout histogram
system.tol3bus.snoop_fanout::underflows             0      0.00%      0.00% # Request fanout histogram
system.tol3bus.snoop_fanout::0               16870203     99.97%     99.97% # Request fanout histogram
system.tol3bus.snoop_fanout::1                   5884      0.03%    100.00% # Request fanout histogram
system.tol3bus.snoop_fanout::2                      0      0.00%    100.00% # Request fanout histogram
system.tol3bus.snoop_fanout::3                      0      0.00%    100.00% # Request fanout histogram
system.tol3bus.snoop_fanout::4                      0      0.00%    100.00% # Request fanout histogram
system.tol3bus.snoop_fanout::overflows              0      0.00%    100.00% # Request fanout histogram
system.tol3bus.snoop_fanout::min_value              0                       # Request fanout histogram
system.tol3bus.snoop_fanout::max_value              1                       # Request fanout histogram
system.tol3bus.snoop_fanout::total           16876087                       # Request fanout histogram
system.tol3bus.reqLayer0.occupancy        31609239708                       # Layer occupancy (ticks)
system.tol3bus.reqLayer0.utilization             33.7                       # Layer utilization (%)
system.tol3bus.respLayer0.occupancy        7864824626                       # Layer occupancy (ticks)
system.tol3bus.respLayer0.utilization             8.4                       # Layer utilization (%)
system.tol3bus.respLayer1.occupancy        7816542407                       # Layer occupancy (ticks)
system.tol3bus.respLayer1.utilization             8.3                       # Layer utilization (%)
system.tol3bus.respLayer2.occupancy        7786033185                       # Layer occupancy (ticks)
system.tol3bus.respLayer2.utilization             8.3                       # Layer utilization (%)
system.tol3bus.respLayer3.occupancy        7803728076                       # Layer occupancy (ticks)
system.tol3bus.respLayer3.utilization             8.3                       # Layer utilization (%)

---------- End Simulation Statistics   ----------
