
---------- Begin Simulation Statistics ----------
sim_seconds                                  0.000446                       # Number of seconds simulated
sim_ticks                                   446163057                       # Number of ticks simulated
final_tick                                  446163057                       # Number of ticks from beginning of simulation (restored from checkpoints and never reset)
sim_freq                                 1000000000000                       # Frequency of simulated ticks
host_inst_rate                                  65045                       # Simulator instruction rate (inst/s)
host_op_rate                                   184184                       # Simulator op (including micro ops) rate (op/s)
host_tick_rate                               32460403                       # Simulator tick rate (ticks/s)
host_mem_usage                                8780800                       # Number of bytes of host memory used
host_seconds                                    13.74                       # Real time elapsed on the host
sim_insts                                      894031                       # Number of instructions simulated
sim_ops                                       2531583                       # Number of ops (including micro ops) simulated
system.voltage_domain.voltage                       1                       # Voltage in Volts
system.clk_domain.clock                          1000                       # Clock period in ticks
system.mem_ctrls.pwrStateResidencyTicks::UNDEFINED    446163057                       # Cumulative time (in ticks) in various power states
system.mem_ctrls.bytes_read::cpu0.inst          49152                       # Number of bytes read from this memory
system.mem_ctrls.bytes_read::cpu0.data         410048                       # Number of bytes read from this memory
system.mem_ctrls.bytes_read::cpu1.inst          48704                       # Number of bytes read from this memory
system.mem_ctrls.bytes_read::cpu1.data         394496                       # Number of bytes read from this memory
system.mem_ctrls.bytes_read::cpu2.inst          49344                       # Number of bytes read from this memory
system.mem_ctrls.bytes_read::cpu2.data         408960                       # Number of bytes read from this memory
system.mem_ctrls.bytes_read::cpu3.inst          49280                       # Number of bytes read from this memory
system.mem_ctrls.bytes_read::cpu3.data         392320                       # Number of bytes read from this memory
system.mem_ctrls.bytes_read::total            1802304                       # Number of bytes read from this memory
system.mem_ctrls.bytes_inst_read::cpu0.inst        49152                       # Number of instructions bytes read from this memory
system.mem_ctrls.bytes_inst_read::cpu1.inst        48704                       # Number of instructions bytes read from this memory
system.mem_ctrls.bytes_inst_read::cpu2.inst        49344                       # Number of instructions bytes read from this memory
system.mem_ctrls.bytes_inst_read::cpu3.inst        49280                       # Number of instructions bytes read from this memory
system.mem_ctrls.bytes_inst_read::total        196480                       # Number of instructions bytes read from this memory
system.mem_ctrls.bytes_written::writebacks        76416                       # Number of bytes written to this memory
system.mem_ctrls.bytes_written::total           76416                       # Number of bytes written to this memory
system.mem_ctrls.num_reads::cpu0.inst             768                       # Number of read requests responded to by this memory
system.mem_ctrls.num_reads::cpu0.data            6407                       # Number of read requests responded to by this memory
system.mem_ctrls.num_reads::cpu1.inst             761                       # Number of read requests responded to by this memory
system.mem_ctrls.num_reads::cpu1.data            6164                       # Number of read requests responded to by this memory
system.mem_ctrls.num_reads::cpu2.inst             771                       # Number of read requests responded to by this memory
system.mem_ctrls.num_reads::cpu2.data            6390                       # Number of read requests responded to by this memory
system.mem_ctrls.num_reads::cpu3.inst             770                       # Number of read requests responded to by this memory
system.mem_ctrls.num_reads::cpu3.data            6130                       # Number of read requests responded to by this memory
system.mem_ctrls.num_reads::total               28161                       # Number of read requests responded to by this memory
system.mem_ctrls.num_writes::writebacks          1194                       # Number of write requests responded to by this memory
system.mem_ctrls.num_writes::total               1194                       # Number of write requests responded to by this memory
system.mem_ctrls.bw_read::cpu0.inst         110166001                       # Total read bandwidth from this memory (bytes/s)
system.mem_ctrls.bw_read::cpu0.data         919054130                       # Total read bandwidth from this memory (bytes/s)
system.mem_ctrls.bw_read::cpu1.inst         109161884                       # Total read bandwidth from this memory (bytes/s)
system.mem_ctrls.bw_read::cpu1.data         884196918                       # Total read bandwidth from this memory (bytes/s)
system.mem_ctrls.bw_read::cpu2.inst         110596337                       # Total read bandwidth from this memory (bytes/s)
system.mem_ctrls.bw_read::cpu2.data         916615559                       # Total read bandwidth from this memory (bytes/s)
system.mem_ctrls.bw_read::cpu3.inst         110452892                       # Total read bandwidth from this memory (bytes/s)
system.mem_ctrls.bw_read::cpu3.data         879319777                       # Total read bandwidth from this memory (bytes/s)
system.mem_ctrls.bw_read::total            4039563500                       # Total read bandwidth from this memory (bytes/s)
system.mem_ctrls.bw_inst_read::cpu0.inst    110166001                       # Instruction read bandwidth from this memory (bytes/s)
system.mem_ctrls.bw_inst_read::cpu1.inst    109161884                       # Instruction read bandwidth from this memory (bytes/s)
system.mem_ctrls.bw_inst_read::cpu2.inst    110596337                       # Instruction read bandwidth from this memory (bytes/s)
system.mem_ctrls.bw_inst_read::cpu3.inst    110452892                       # Instruction read bandwidth from this memory (bytes/s)
system.mem_ctrls.bw_inst_read::total        440377115                       # Instruction read bandwidth from this memory (bytes/s)
system.mem_ctrls.bw_write::writebacks       171273705                       # Write bandwidth from this memory (bytes/s)
system.mem_ctrls.bw_write::total            171273705                       # Write bandwidth from this memory (bytes/s)
system.mem_ctrls.bw_total::writebacks       171273705                       # Total bandwidth to/from this memory (bytes/s)
system.mem_ctrls.bw_total::cpu0.inst        110166001                       # Total bandwidth to/from this memory (bytes/s)
system.mem_ctrls.bw_total::cpu0.data        919054130                       # Total bandwidth to/from this memory (bytes/s)
system.mem_ctrls.bw_total::cpu1.inst        109161884                       # Total bandwidth to/from this memory (bytes/s)
system.mem_ctrls.bw_total::cpu1.data        884196918                       # Total bandwidth to/from this memory (bytes/s)
system.mem_ctrls.bw_total::cpu2.inst        110596337                       # Total bandwidth to/from this memory (bytes/s)
system.mem_ctrls.bw_total::cpu2.data        916615559                       # Total bandwidth to/from this memory (bytes/s)
system.mem_ctrls.bw_total::cpu3.inst        110452892                       # Total bandwidth to/from this memory (bytes/s)
system.mem_ctrls.bw_total::cpu3.data        879319777                       # Total bandwidth to/from this memory (bytes/s)
system.mem_ctrls.bw_total::total           4210837205                       # Total bandwidth to/from this memory (bytes/s)
system.pwrStateResidencyTicks::UNDEFINED    446163057                       # Cumulative time (in ticks) in various power states
system.cpu0.branchPred.lookups                  43289                       # Number of BP lookups
system.cpu0.branchPred.condPredicted            43289                       # Number of conditional branches predicted
system.cpu0.branchPred.condIncorrect             2414                       # Number of conditional branches incorrect
system.cpu0.branchPred.BTBLookups               35537                       # Number of BTB lookups
system.cpu0.branchPred.BTBHits                      0                       # Number of BTB hits
system.cpu0.branchPred.BTBCorrect                   0                       # Number of correct BTB predictions (this stat may not work properly.
system.cpu0.branchPred.BTBHitPct             0.000000                       # BTB Hit Percentage
system.cpu0.branchPred.usedRAS                   5691                       # Number of times the RAS was used to get a target.
system.cpu0.branchPred.RASInCorrect               335                       # Number of incorrect RAS predictions.
system.cpu0.branchPred.indirectLookups          35537                       # Number of indirect predictor lookups.
system.cpu0.branchPred.indirectHits             13621                       # Number of indirect target hits.
system.cpu0.branchPred.indirectMisses           21916                       # Number of indirect misses.
system.cpu0.branchPredindirectMispredicted         1824                       # Number of mispredicted indirect branches.
system.cpu_voltage_domain.voltage                   1                       # Voltage in Volts
system.cpu_clk_domain.clock                       333                       # Clock period in ticks
system.cpu0.dtb.walker.pwrStateResidencyTicks::UNDEFINED    446163057                       # Cumulative time (in ticks) in various power states
system.cpu0.dtb.rdAccesses                      38337                       # TLB accesses on read requests
system.cpu0.dtb.wrAccesses                      63333                       # TLB accesses on write requests
system.cpu0.dtb.rdMisses                          277                       # TLB misses on read requests
system.cpu0.dtb.wrMisses                          675                       # TLB misses on write requests
system.cpu0.apic_clk_domain.clock                5328                       # Clock period in ticks
system.cpu0.interrupts.pwrStateResidencyTicks::UNDEFINED    446163057                       # Cumulative time (in ticks) in various power states
system.cpu0.itb.walker.pwrStateResidencyTicks::UNDEFINED    446163057                       # Cumulative time (in ticks) in various power states
system.cpu0.itb.rdAccesses                          0                       # TLB accesses on read requests
system.cpu0.itb.wrAccesses                      39801                       # TLB accesses on write requests
system.cpu0.itb.rdMisses                            0                       # TLB misses on read requests
system.cpu0.itb.wrMisses                          162                       # TLB misses on write requests
system.cpu0.workload.numSyscalls                   26                       # Number of system calls
system.cpu0.pwrStateResidencyTicks::ON      446163057                       # Cumulative time (in ticks) in various power states
system.cpu0.numCycles                         1339830                       # number of cpu cycles simulated
system.cpu0.numWorkItemsStarted                     0                       # number of work items this cpu started
system.cpu0.numWorkItemsCompleted                   0                       # number of work items this cpu completed
system.cpu0.fetch.icacheStallCycles             62307                       # Number of cycles fetch is stalled on an Icache miss
system.cpu0.fetch.Insts                        286796                       # Number of instructions fetch has processed
system.cpu0.fetch.Branches                      43289                       # Number of branches that fetch encountered
system.cpu0.fetch.predictedBranches             19312                       # Number of branches that fetch has predicted taken
system.cpu0.fetch.Cycles                      1209065                       # Number of cycles fetch has run and was not squashing or blocked
system.cpu0.fetch.SquashCycles                   4994                       # Number of cycles fetch has spent squashing
system.cpu0.fetch.MiscStallCycles                  76                       # Number of cycles fetch has spent waiting on interrupts, or bad addresses, or out of MSHRs
system.cpu0.fetch.PendingTrapStallCycles          473                       # Number of stall cycles due to pending traps
system.cpu0.fetch.PendingQuiesceStallCycles            6                       # Number of stall cycles due to pending quiesce instructions
system.cpu0.fetch.IcacheWaitRetryStallCycles          386                       # Number of stall cycles due to full MSHR
system.cpu0.fetch.CacheLines                    39702                       # Number of cache lines fetched
system.cpu0.fetch.IcacheSquashes                 1019                       # Number of outstanding Icache misses that were squashed
system.cpu0.fetch.rateDist::samples           1274810                       # Number of instructions fetched each cycle (Total)
system.cpu0.fetch.rateDist::mean             0.601718                       # Number of instructions fetched each cycle (Total)
system.cpu0.fetch.rateDist::stdev            1.997533                       # Number of instructions fetched each cycle (Total)
system.cpu0.fetch.rateDist::underflows              0      0.00%      0.00% # Number of instructions fetched each cycle (Total)
system.cpu0.fetch.rateDist::0                 1155125     90.61%     90.61% # Number of instructions fetched each cycle (Total)
system.cpu0.fetch.rateDist::1                    5447      0.43%     91.04% # Number of instructions fetched each cycle (Total)
system.cpu0.fetch.rateDist::2                    8412      0.66%     91.70% # Number of instructions fetched each cycle (Total)
system.cpu0.fetch.rateDist::3                    5445      0.43%     92.13% # Number of instructions fetched each cycle (Total)
system.cpu0.fetch.rateDist::4                    8730      0.68%     92.81% # Number of instructions fetched each cycle (Total)
system.cpu0.fetch.rateDist::5                    5395      0.42%     93.23% # Number of instructions fetched each cycle (Total)
system.cpu0.fetch.rateDist::6                    8641      0.68%     93.91% # Number of instructions fetched each cycle (Total)
system.cpu0.fetch.rateDist::7                    6191      0.49%     94.40% # Number of instructions fetched each cycle (Total)
system.cpu0.fetch.rateDist::8                   71424      5.60%    100.00% # Number of instructions fetched each cycle (Total)
system.cpu0.fetch.rateDist::overflows               0      0.00%    100.00% # Number of instructions fetched each cycle (Total)
system.cpu0.fetch.rateDist::min_value               0                       # Number of instructions fetched each cycle (Total)
system.cpu0.fetch.rateDist::max_value               8                       # Number of instructions fetched each cycle (Total)
system.cpu0.fetch.rateDist::total             1274810                       # Number of instructions fetched each cycle (Total)
system.cpu0.fetch.branchRate                 0.032309                       # Number of branch fetches per cycle
system.cpu0.fetch.rate                       0.214054                       # Number of inst fetches per cycle
system.cpu0.decode.IdleCycles                   52238                       # Number of cycles decode is idle
system.cpu0.decode.BlockedCycles              1123112                       # Number of cycles decode is blocked
system.cpu0.decode.RunCycles                    40781                       # Number of cycles decode is running
system.cpu0.decode.UnblockCycles                56182                       # Number of cycles decode is unblocking
system.cpu0.decode.SquashCycles                  2497                       # Number of cycles decode is squashing
system.cpu0.decode.DecodedInsts                751285                       # Number of instructions handled by decode
system.cpu0.rename.SquashCycles                  2497                       # Number of cycles rename is squashing
system.cpu0.rename.IdleCycles                   68877                       # Number of cycles rename is idle
system.cpu0.rename.BlockCycles                 330272                       # Number of cycles rename is blocking
system.cpu0.rename.serializeStallCycles          3098                       # count of cycles rename stalled for serializing inst
system.cpu0.rename.RunCycles                    80080                       # Number of cycles rename is running
system.cpu0.rename.UnblockCycles               789986                       # Number of cycles rename is unblocking
system.cpu0.rename.RenamedInsts                742194                       # Number of instructions processed by rename
system.cpu0.rename.ROBFullEvents                   81                       # Number of times rename has blocked due to ROB full
system.cpu0.rename.IQFullEvents                 77965                       # Number of times rename has blocked due to IQ full
system.cpu0.rename.LQFullEvents                     2                       # Number of times rename has blocked due to LQ full
system.cpu0.rename.SQFullEvents                705761                       # Number of times rename has blocked due to SQ full
system.cpu0.rename.RenamedOperands            1010703                       # Number of destination operands rename has renamed
system.cpu0.rename.RenameLookups              2315909                       # Number of register rename lookups that rename has made
system.cpu0.rename.int_rename_lookups         1507154                       # Number of integer rename lookups
system.cpu0.rename.fp_rename_lookups            35268                       # Number of floating rename lookups
system.cpu0.rename.CommittedMaps               926474                       # Number of HB maps that are committed
system.cpu0.rename.UndoneMaps                   84104                       # Number of HB maps that are undone due to squashing
system.cpu0.rename.serializingInsts                71                       # count of serializing insts renamed
system.cpu0.rename.tempSerializingInsts            66                       # count of temporary serializing insts renamed
system.cpu0.rename.skidInsts                   249569                       # count of insts added to the skid buffer
system.cpu0.memDep0.insertedLoads               41263                       # Number of loads inserted to the mem dependence unit.
system.cpu0.memDep0.insertedStores              66469                       # Number of stores inserted to the mem dependence unit.
system.cpu0.memDep0.conflictingLoads              508                       # Number of conflicting loads.
system.cpu0.memDep0.conflictingStores            1625                       # Number of conflicting stores.
system.cpu0.iq.iqInstsAdded                    724707                       # Number of instructions added to the IQ (excludes non-spec)
system.cpu0.iq.iqNonSpecInstsAdded                366                       # Number of non-speculative instructions added to the IQ
system.cpu0.iq.iqInstsIssued                   705796                       # Number of instructions issued
system.cpu0.iq.iqSquashedInstsIssued              786                       # Number of squashed instructions issued
system.cpu0.iq.iqSquashedInstsExamined          59840                       # Number of squashed instructions iterated over during squash; mainly for profiling
system.cpu0.iq.iqSquashedOperandsExamined        80324                       # Number of squashed operands that are examined and possibly removed from graph
system.cpu0.iq.iqSquashedNonSpecRemoved           328                       # Number of squashed non-spec instructions that were removed
system.cpu0.iq.issued_per_cycle::samples      1274810                       # Number of insts issued each cycle
system.cpu0.iq.issued_per_cycle::mean        0.553648                       # Number of insts issued each cycle
system.cpu0.iq.issued_per_cycle::stdev       1.251389                       # Number of insts issued each cycle
system.cpu0.iq.issued_per_cycle::underflows            0      0.00%      0.00% # Number of insts issued each cycle
system.cpu0.iq.issued_per_cycle::0             980805     76.94%     76.94% # Number of insts issued each cycle
system.cpu0.iq.issued_per_cycle::1             105456      8.27%     85.21% # Number of insts issued each cycle
system.cpu0.iq.issued_per_cycle::2              81587      6.40%     91.61% # Number of insts issued each cycle
system.cpu0.iq.issued_per_cycle::3              46280      3.63%     95.24% # Number of insts issued each cycle
system.cpu0.iq.issued_per_cycle::4              28472      2.23%     97.47% # Number of insts issued each cycle
system.cpu0.iq.issued_per_cycle::5              17634      1.38%     98.86% # Number of insts issued each cycle
system.cpu0.iq.issued_per_cycle::6               7296      0.57%     99.43% # Number of insts issued each cycle
system.cpu0.iq.issued_per_cycle::7               5748      0.45%     99.88% # Number of insts issued each cycle
system.cpu0.iq.issued_per_cycle::8               1532      0.12%    100.00% # Number of insts issued each cycle
system.cpu0.iq.issued_per_cycle::overflows            0      0.00%    100.00% # Number of insts issued each cycle
system.cpu0.iq.issued_per_cycle::min_value            0                       # Number of insts issued each cycle
system.cpu0.iq.issued_per_cycle::max_value            8                       # Number of insts issued each cycle
system.cpu0.iq.issued_per_cycle::total        1274810                       # Number of insts issued each cycle
system.cpu0.iq.fu_full::No_OpClass                  0      0.00%      0.00% # attempts to use FU when none available
system.cpu0.iq.fu_full::IntAlu                   2396     87.57%     87.57% # attempts to use FU when none available
system.cpu0.iq.fu_full::IntMult                     0      0.00%     87.57% # attempts to use FU when none available
system.cpu0.iq.fu_full::IntDiv                      0      0.00%     87.57% # attempts to use FU when none available
system.cpu0.iq.fu_full::FloatAdd                   14      0.51%     88.08% # attempts to use FU when none available
system.cpu0.iq.fu_full::FloatCmp                    0      0.00%     88.08% # attempts to use FU when none available
system.cpu0.iq.fu_full::FloatCvt                    0      0.00%     88.08% # attempts to use FU when none available
system.cpu0.iq.fu_full::FloatMult                   0      0.00%     88.08% # attempts to use FU when none available
system.cpu0.iq.fu_full::FloatMultAcc                0      0.00%     88.08% # attempts to use FU when none available
system.cpu0.iq.fu_full::FloatDiv                    0      0.00%     88.08% # attempts to use FU when none available
system.cpu0.iq.fu_full::FloatMisc                   0      0.00%     88.08% # attempts to use FU when none available
system.cpu0.iq.fu_full::FloatSqrt                   0      0.00%     88.08% # attempts to use FU when none available
system.cpu0.iq.fu_full::SimdAdd                     0      0.00%     88.08% # attempts to use FU when none available
system.cpu0.iq.fu_full::SimdAddAcc                  0      0.00%     88.08% # attempts to use FU when none available
system.cpu0.iq.fu_full::SimdAlu                     0      0.00%     88.08% # attempts to use FU when none available
system.cpu0.iq.fu_full::SimdCmp                     0      0.00%     88.08% # attempts to use FU when none available
system.cpu0.iq.fu_full::SimdCvt                     0      0.00%     88.08% # attempts to use FU when none available
system.cpu0.iq.fu_full::SimdMisc                    0      0.00%     88.08% # attempts to use FU when none available
system.cpu0.iq.fu_full::SimdMult                    0      0.00%     88.08% # attempts to use FU when none available
system.cpu0.iq.fu_full::SimdMultAcc                 0      0.00%     88.08% # attempts to use FU when none available
system.cpu0.iq.fu_full::SimdShift                   0      0.00%     88.08% # attempts to use FU when none available
system.cpu0.iq.fu_full::SimdShiftAcc                0      0.00%     88.08% # attempts to use FU when none available
system.cpu0.iq.fu_full::SimdSqrt                    0      0.00%     88.08% # attempts to use FU when none available
system.cpu0.iq.fu_full::SimdFloatAdd                0      0.00%     88.08% # attempts to use FU when none available
system.cpu0.iq.fu_full::SimdFloatAlu                0      0.00%     88.08% # attempts to use FU when none available
system.cpu0.iq.fu_full::SimdFloatCmp                0      0.00%     88.08% # attempts to use FU when none available
system.cpu0.iq.fu_full::SimdFloatCvt                0      0.00%     88.08% # attempts to use FU when none available
system.cpu0.iq.fu_full::SimdFloatDiv                0      0.00%     88.08% # attempts to use FU when none available
system.cpu0.iq.fu_full::SimdFloatMisc               0      0.00%     88.08% # attempts to use FU when none available
system.cpu0.iq.fu_full::SimdFloatMult               0      0.00%     88.08% # attempts to use FU when none available
system.cpu0.iq.fu_full::SimdFloatMultAcc            0      0.00%     88.08% # attempts to use FU when none available
system.cpu0.iq.fu_full::SimdFloatSqrt               0      0.00%     88.08% # attempts to use FU when none available
system.cpu0.iq.fu_full::MemRead                    78      2.85%     90.94% # attempts to use FU when none available
system.cpu0.iq.fu_full::MemWrite                   86      3.14%     94.08% # attempts to use FU when none available
system.cpu0.iq.fu_full::FloatMemRead                7      0.26%     94.33% # attempts to use FU when none available
system.cpu0.iq.fu_full::FloatMemWrite             155      5.67%    100.00% # attempts to use FU when none available
system.cpu0.iq.fu_full::IprAccess                   0      0.00%    100.00% # attempts to use FU when none available
system.cpu0.iq.fu_full::InstPrefetch                0      0.00%    100.00% # attempts to use FU when none available
system.cpu0.iq.FU_type_0::No_OpClass            10058      1.43%      1.43% # Type of FU issued
system.cpu0.iq.FU_type_0::IntAlu               509894     72.24%     73.67% # Type of FU issued
system.cpu0.iq.FU_type_0::IntMult               19121      2.71%     76.38% # Type of FU issued
system.cpu0.iq.FU_type_0::IntDiv                62387      8.84%     85.22% # Type of FU issued
system.cpu0.iq.FU_type_0::FloatAdd               1063      0.15%     85.37% # Type of FU issued
system.cpu0.iq.FU_type_0::FloatCmp                  0      0.00%     85.37% # Type of FU issued
system.cpu0.iq.FU_type_0::FloatCvt                  0      0.00%     85.37% # Type of FU issued
system.cpu0.iq.FU_type_0::FloatMult                 0      0.00%     85.37% # Type of FU issued
system.cpu0.iq.FU_type_0::FloatMultAcc              0      0.00%     85.37% # Type of FU issued
system.cpu0.iq.FU_type_0::FloatDiv                  0      0.00%     85.37% # Type of FU issued
system.cpu0.iq.FU_type_0::FloatMisc                 0      0.00%     85.37% # Type of FU issued
system.cpu0.iq.FU_type_0::FloatSqrt                 0      0.00%     85.37% # Type of FU issued
system.cpu0.iq.FU_type_0::SimdAdd                   0      0.00%     85.37% # Type of FU issued
system.cpu0.iq.FU_type_0::SimdAddAcc                0      0.00%     85.37% # Type of FU issued
system.cpu0.iq.FU_type_0::SimdAlu                   0      0.00%     85.37% # Type of FU issued
system.cpu0.iq.FU_type_0::SimdCmp                   0      0.00%     85.37% # Type of FU issued
system.cpu0.iq.FU_type_0::SimdCvt                   0      0.00%     85.37% # Type of FU issued
system.cpu0.iq.FU_type_0::SimdMisc                  0      0.00%     85.37% # Type of FU issued
system.cpu0.iq.FU_type_0::SimdMult                  0      0.00%     85.37% # Type of FU issued
system.cpu0.iq.FU_type_0::SimdMultAcc               0      0.00%     85.37% # Type of FU issued
system.cpu0.iq.FU_type_0::SimdShift                 0      0.00%     85.37% # Type of FU issued
system.cpu0.iq.FU_type_0::SimdShiftAcc              0      0.00%     85.37% # Type of FU issued
system.cpu0.iq.FU_type_0::SimdSqrt                  0      0.00%     85.37% # Type of FU issued
system.cpu0.iq.FU_type_0::SimdFloatAdd              0      0.00%     85.37% # Type of FU issued
system.cpu0.iq.FU_type_0::SimdFloatAlu              0      0.00%     85.37% # Type of FU issued
system.cpu0.iq.FU_type_0::SimdFloatCmp              0      0.00%     85.37% # Type of FU issued
system.cpu0.iq.FU_type_0::SimdFloatCvt              0      0.00%     85.37% # Type of FU issued
system.cpu0.iq.FU_type_0::SimdFloatDiv              0      0.00%     85.37% # Type of FU issued
system.cpu0.iq.FU_type_0::SimdFloatMisc             0      0.00%     85.37% # Type of FU issued
system.cpu0.iq.FU_type_0::SimdFloatMult             0      0.00%     85.37% # Type of FU issued
system.cpu0.iq.FU_type_0::SimdFloatMultAcc            0      0.00%     85.37% # Type of FU issued
system.cpu0.iq.FU_type_0::SimdFloatSqrt             0      0.00%     85.37% # Type of FU issued
system.cpu0.iq.FU_type_0::MemRead               37935      5.37%     90.74% # Type of FU issued
system.cpu0.iq.FU_type_0::MemWrite              31300      4.43%     95.18% # Type of FU issued
system.cpu0.iq.FU_type_0::FloatMemRead           1343      0.19%     95.37% # Type of FU issued
system.cpu0.iq.FU_type_0::FloatMemWrite         32695      4.63%    100.00% # Type of FU issued
system.cpu0.iq.FU_type_0::IprAccess                 0      0.00%    100.00% # Type of FU issued
system.cpu0.iq.FU_type_0::InstPrefetch              0      0.00%    100.00% # Type of FU issued
system.cpu0.iq.FU_type_0::total                705796                       # Type of FU issued
system.cpu0.iq.rate                          0.526780                       # Inst issue rate
system.cpu0.iq.fu_busy_cnt                       2736                       # FU busy when requested
system.cpu0.iq.fu_busy_rate                  0.003876                       # FU busy rate (busy events/executed inst)
system.cpu0.iq.int_inst_queue_reads           2619239                       # Number of integer instruction queue reads
system.cpu0.iq.int_inst_queue_writes           749057                       # Number of integer instruction queue writes
system.cpu0.iq.int_inst_queue_wakeup_accesses       663095                       # Number of integer instruction queue wakeup accesses
system.cpu0.iq.fp_inst_queue_reads              70680                       # Number of floating instruction queue reads
system.cpu0.iq.fp_inst_queue_writes             35901                       # Number of floating instruction queue writes
system.cpu0.iq.fp_inst_queue_wakeup_accesses        35133                       # Number of floating instruction queue wakeup accesses
system.cpu0.iq.vec_inst_queue_reads                 0                       # Number of vector instruction queue reads
system.cpu0.iq.vec_inst_queue_writes                0                       # Number of vector instruction queue writes
system.cpu0.iq.vec_inst_queue_wakeup_accesses            0                       # Number of vector instruction queue wakeup accesses
system.cpu0.iq.int_alu_accesses                663075                       # Number of integer alu accesses
system.cpu0.iq.fp_alu_accesses                  35399                       # Number of floating point alu accesses
system.cpu0.iq.vec_alu_accesses                     0                       # Number of vector alu accesses
system.cpu0.iew.lsq.thread0.forwLoads            6637                       # Number of loads that had data forwarded from stores
system.cpu0.iew.lsq.thread0.invAddrLoads            0                       # Number of loads ignored due to an invalid address
system.cpu0.iew.lsq.thread0.squashedLoads         7527                       # Number of loads squashed
system.cpu0.iew.lsq.thread0.ignoredResponses           22                       # Number of memory responses ignored because the instruction is squashed
system.cpu0.iew.lsq.thread0.memOrderViolation           50                       # Number of memory ordering violations
system.cpu0.iew.lsq.thread0.squashedStores         5378                       # Number of stores squashed
system.cpu0.iew.lsq.thread0.invAddrSwpfs            0                       # Number of software prefetches ignored due to an invalid address
system.cpu0.iew.lsq.thread0.blockedLoads            0                       # Number of blocked loads due to partial load-store forwarding
system.cpu0.iew.lsq.thread0.rescheduledLoads           29                       # Number of loads that were rescheduled
system.cpu0.iew.lsq.thread0.cacheBlocked           46                       # Number of times an access to memory failed due to the cache being blocked
system.cpu0.iew.iewIdleCycles                       0                       # Number of cycles IEW is idle
system.cpu0.iew.iewSquashCycles                  2497                       # Number of cycles IEW is squashing
system.cpu0.iew.iewBlockCycles                   9155                       # Number of cycles IEW is blocking
system.cpu0.iew.iewUnblockCycles               318614                       # Number of cycles IEW is unblocking
system.cpu0.iew.iewDispatchedInsts             725073                       # Number of instructions dispatched to IQ
system.cpu0.iew.iewDispSquashedInsts              131                       # Number of squashed instructions skipped by dispatch
system.cpu0.iew.iewDispLoadInsts                41263                       # Number of dispatched load instructions
system.cpu0.iew.iewDispStoreInsts               66469                       # Number of dispatched store instructions
system.cpu0.iew.iewDispNonSpecInsts               161                       # Number of dispatched non-speculative instructions
system.cpu0.iew.iewIQFullEvents                    25                       # Number of times the IQ has become full, causing a stall
system.cpu0.iew.iewLSQFullEvents               318584                       # Number of times the LSQ has become full, causing a stall
system.cpu0.iew.memOrderViolationEvents            50                       # Number of memory order violations
system.cpu0.iew.predictedTakenIncorrect           539                       # Number of branches that were predicted taken incorrectly
system.cpu0.iew.predictedNotTakenIncorrect         2708                       # Number of branches that were predicted not taken incorrectly
system.cpu0.iew.branchMispredicts                3247                       # Number of branch mispredicts detected at execute
system.cpu0.iew.iewExecutedInsts               700441                       # Number of executed instructions
system.cpu0.iew.iewExecLoadInsts                38285                       # Number of load instructions executed
system.cpu0.iew.iewExecSquashedInsts             5350                       # Number of squashed instructions skipped in execute
system.cpu0.iew.exec_swp                            0                       # number of swp insts executed
system.cpu0.iew.exec_nop                            0                       # number of nop insts executed
system.cpu0.iew.exec_refs                      101614                       # number of memory reference insts executed
system.cpu0.iew.exec_branches                   35004                       # Number of branches executed
system.cpu0.iew.exec_stores                     63329                       # Number of stores executed
system.cpu0.iew.exec_rate                    0.522783                       # Inst execution rate
system.cpu0.iew.wb_sent                        699215                       # cumulative count of insts sent to commit
system.cpu0.iew.wb_count                       698228                       # cumulative count of insts written-back
system.cpu0.iew.wb_producers                   526397                       # num instructions producing a value
system.cpu0.iew.wb_consumers                  1406877                       # num instructions consuming a value
system.cpu0.iew.wb_rate                      0.521132                       # insts written-back per cycle
system.cpu0.iew.wb_fanout                    0.374160                       # average fanout of values written-back
system.cpu0.commit.commitSquashedInsts          59857                       # The number of squashed insts skipped by commit
system.cpu0.commit.commitNonSpecStalls             38                       # The number of times commit has been forced to stall to communicate backwards
system.cpu0.commit.branchMispredicts             2468                       # The number of times a branch was mispredicted
system.cpu0.commit.committed_per_cycle::samples      1265280                       # Number of insts commited each cycle
system.cpu0.commit.committed_per_cycle::mean     0.525699                       # Number of insts commited each cycle
system.cpu0.commit.committed_per_cycle::stdev     1.435374                       # Number of insts commited each cycle
system.cpu0.commit.committed_per_cycle::underflows            0      0.00%      0.00% # Number of insts commited each cycle
system.cpu0.commit.committed_per_cycle::0       988939     78.16%     78.16% # Number of insts commited each cycle
system.cpu0.commit.committed_per_cycle::1       168950     13.35%     91.51% # Number of insts commited each cycle
system.cpu0.commit.committed_per_cycle::2        20651      1.63%     93.14% # Number of insts commited each cycle
system.cpu0.commit.committed_per_cycle::3        24394      1.93%     95.07% # Number of insts commited each cycle
system.cpu0.commit.committed_per_cycle::4        10861      0.86%     95.93% # Number of insts commited each cycle
system.cpu0.commit.committed_per_cycle::5        17490      1.38%     97.31% # Number of insts commited each cycle
system.cpu0.commit.committed_per_cycle::6         7849      0.62%     97.93% # Number of insts commited each cycle
system.cpu0.commit.committed_per_cycle::7         5434      0.43%     98.36% # Number of insts commited each cycle
system.cpu0.commit.committed_per_cycle::8        20712      1.64%    100.00% # Number of insts commited each cycle
system.cpu0.commit.committed_per_cycle::overflows            0      0.00%    100.00% # Number of insts commited each cycle
system.cpu0.commit.committed_per_cycle::min_value            0                       # Number of insts commited each cycle
system.cpu0.commit.committed_per_cycle::max_value            8                       # Number of insts commited each cycle
system.cpu0.commit.committed_per_cycle::total      1265280                       # Number of insts commited each cycle
system.cpu0.commit.committedInsts              233820                       # Number of instructions committed
system.cpu0.commit.committedOps                665156                       # Number of ops (including micro ops) committed
system.cpu0.commit.swp_count                        0                       # Number of s/w prefetches committed
system.cpu0.commit.refs                         94821                       # Number of memory references committed
system.cpu0.commit.loads                        33731                       # Number of loads committed
system.cpu0.commit.membars                          8                       # Number of memory barriers committed
system.cpu0.commit.branches                     32393                       # Number of branches committed
system.cpu0.commit.vec_insts                        0                       # Number of committed Vector instructions.
system.cpu0.commit.fp_insts                     34893                       # Number of committed floating point instructions.
system.cpu0.commit.int_insts                   654915                       # Number of committed integer instructions.
system.cpu0.commit.function_calls                4918                       # Number of function calls committed.
system.cpu0.commit.op_class_0::No_OpClass         9261      1.39%      1.39% # Class of committed instruction
system.cpu0.commit.op_class_0::IntAlu          478706     71.97%     73.36% # Class of committed instruction
system.cpu0.commit.op_class_0::IntMult          18967      2.85%     76.21% # Class of committed instruction
system.cpu0.commit.op_class_0::IntDiv           62365      9.38%     85.59% # Class of committed instruction
system.cpu0.commit.op_class_0::FloatAdd          1036      0.16%     85.74% # Class of committed instruction
system.cpu0.commit.op_class_0::FloatCmp             0      0.00%     85.74% # Class of committed instruction
system.cpu0.commit.op_class_0::FloatCvt             0      0.00%     85.74% # Class of committed instruction
system.cpu0.commit.op_class_0::FloatMult            0      0.00%     85.74% # Class of committed instruction
system.cpu0.commit.op_class_0::FloatMultAcc            0      0.00%     85.74% # Class of committed instruction
system.cpu0.commit.op_class_0::FloatDiv             0      0.00%     85.74% # Class of committed instruction
system.cpu0.commit.op_class_0::FloatMisc            0      0.00%     85.74% # Class of committed instruction
system.cpu0.commit.op_class_0::FloatSqrt            0      0.00%     85.74% # Class of committed instruction
system.cpu0.commit.op_class_0::SimdAdd              0      0.00%     85.74% # Class of committed instruction
system.cpu0.commit.op_class_0::SimdAddAcc            0      0.00%     85.74% # Class of committed instruction
system.cpu0.commit.op_class_0::SimdAlu              0      0.00%     85.74% # Class of committed instruction
system.cpu0.commit.op_class_0::SimdCmp              0      0.00%     85.74% # Class of committed instruction
system.cpu0.commit.op_class_0::SimdCvt              0      0.00%     85.74% # Class of committed instruction
system.cpu0.commit.op_class_0::SimdMisc             0      0.00%     85.74% # Class of committed instruction
system.cpu0.commit.op_class_0::SimdMult             0      0.00%     85.74% # Class of committed instruction
system.cpu0.commit.op_class_0::SimdMultAcc            0      0.00%     85.74% # Class of committed instruction
system.cpu0.commit.op_class_0::SimdShift            0      0.00%     85.74% # Class of committed instruction
system.cpu0.commit.op_class_0::SimdShiftAcc            0      0.00%     85.74% # Class of committed instruction
system.cpu0.commit.op_class_0::SimdSqrt             0      0.00%     85.74% # Class of committed instruction
system.cpu0.commit.op_class_0::SimdFloatAdd            0      0.00%     85.74% # Class of committed instruction
system.cpu0.commit.op_class_0::SimdFloatAlu            0      0.00%     85.74% # Class of committed instruction
system.cpu0.commit.op_class_0::SimdFloatCmp            0      0.00%     85.74% # Class of committed instruction
system.cpu0.commit.op_class_0::SimdFloatCvt            0      0.00%     85.74% # Class of committed instruction
system.cpu0.commit.op_class_0::SimdFloatDiv            0      0.00%     85.74% # Class of committed instruction
system.cpu0.commit.op_class_0::SimdFloatMisc            0      0.00%     85.74% # Class of committed instruction
system.cpu0.commit.op_class_0::SimdFloatMult            0      0.00%     85.74% # Class of committed instruction
system.cpu0.commit.op_class_0::SimdFloatMultAcc            0      0.00%     85.74% # Class of committed instruction
system.cpu0.commit.op_class_0::SimdFloatSqrt            0      0.00%     85.74% # Class of committed instruction
system.cpu0.commit.op_class_0::MemRead          32466      4.88%     90.63% # Class of committed instruction
system.cpu0.commit.op_class_0::MemWrite         28617      4.30%     94.93% # Class of committed instruction
system.cpu0.commit.op_class_0::FloatMemRead         1265      0.19%     95.12% # Class of committed instruction
system.cpu0.commit.op_class_0::FloatMemWrite        32473      4.88%    100.00% # Class of committed instruction
system.cpu0.commit.op_class_0::IprAccess            0      0.00%    100.00% # Class of committed instruction
system.cpu0.commit.op_class_0::InstPrefetch            0      0.00%    100.00% # Class of committed instruction
system.cpu0.commit.op_class_0::total           665156                       # Class of committed instruction
system.cpu0.commit.bw_lim_events                20712                       # number cycles where commit BW limit reached
system.cpu0.rob.rob_reads                     1969581                       # The number of ROB reads
system.cpu0.rob.rob_writes                    1459851                       # The number of ROB writes
system.cpu0.timesIdled                            433                       # Number of times that the entire CPU went into an idle state and unscheduled itself
system.cpu0.idleCycles                          65020                       # Total number of cycles that the CPU has spent unscheduled due to idling
system.cpu0.committedInsts                     233820                       # Number of Instructions Simulated
system.cpu0.committedOps                       665156                       # Number of Ops (including micro ops) Simulated
system.cpu0.cpi                              5.730177                       # CPI: Cycles Per Instruction
system.cpu0.cpi_total                        5.730177                       # CPI: Total CPI of All Threads
system.cpu0.ipc                              0.174515                       # IPC: Instructions Per Cycle
system.cpu0.ipc_total                        0.174515                       # IPC: Total IPC of All Threads
system.cpu0.int_regfile_reads                 1434851                       # number of integer regfile reads
system.cpu0.int_regfile_writes                 741102                       # number of integer regfile writes
system.cpu0.fp_regfile_reads                    34938                       # number of floating regfile reads
system.cpu0.fp_regfile_writes                    2350                       # number of floating regfile writes
system.cpu0.cc_regfile_reads                   553486                       # number of cc regfile reads
system.cpu0.cc_regfile_writes                  218894                       # number of cc regfile writes
system.cpu0.misc_regfile_reads                 173624                       # number of misc regfile reads
system.cpu0.dcache.tags.pwrStateResidencyTicks::UNDEFINED    446163057                       # Cumulative time (in ticks) in various power states
system.cpu0.dcache.tags.replacements             5921                       # number of replacements
system.cpu0.dcache.tags.tagsinuse          474.050162                       # Cycle average of tags in use
system.cpu0.dcache.tags.total_refs              85881                       # Total number of references to valid blocks.
system.cpu0.dcache.tags.sampled_refs             6433                       # Sample count of references to valid blocks.
system.cpu0.dcache.tags.avg_refs            13.350070                       # Average number of references to valid blocks.
system.cpu0.dcache.tags.warmup_cycle           148518                       # Cycle when the warmup percentage was hit.
system.cpu0.dcache.tags.occ_blocks::cpu0.data   474.050162                       # Average occupied blocks per requestor
system.cpu0.dcache.tags.occ_percent::cpu0.data     0.925879                       # Average percentage of cache occupancy
system.cpu0.dcache.tags.occ_percent::total     0.925879                       # Average percentage of cache occupancy
system.cpu0.dcache.tags.occ_task_id_blocks::1024          512                       # Occupied blocks per task id
system.cpu0.dcache.tags.age_task_id_blocks_1024::0           32                       # Occupied blocks per task id
system.cpu0.dcache.tags.age_task_id_blocks_1024::2          480                       # Occupied blocks per task id
system.cpu0.dcache.tags.occ_task_id_percent::1024            1                       # Percentage of cache occupancy per task id
system.cpu0.dcache.tags.tag_accesses           746033                       # Number of tag accesses
system.cpu0.dcache.tags.data_accesses          746033                       # Number of data accesses
system.cpu0.dcache.pwrStateResidencyTicks::UNDEFINED    446163057                       # Cumulative time (in ticks) in various power states
system.cpu0.dcache.ReadReq_hits::cpu0.data        31053                       # number of ReadReq hits
system.cpu0.dcache.ReadReq_hits::total          31053                       # number of ReadReq hits
system.cpu0.dcache.WriteReq_hits::cpu0.data        54828                       # number of WriteReq hits
system.cpu0.dcache.WriteReq_hits::total         54828                       # number of WriteReq hits
system.cpu0.dcache.demand_hits::cpu0.data        85881                       # number of demand (read+write) hits
system.cpu0.dcache.demand_hits::total           85881                       # number of demand (read+write) hits
system.cpu0.dcache.overall_hits::cpu0.data        85881                       # number of overall hits
system.cpu0.dcache.overall_hits::total          85881                       # number of overall hits
system.cpu0.dcache.ReadReq_misses::cpu0.data          325                       # number of ReadReq misses
system.cpu0.dcache.ReadReq_misses::total          325                       # number of ReadReq misses
system.cpu0.dcache.WriteReq_misses::cpu0.data         6244                       # number of WriteReq misses
system.cpu0.dcache.WriteReq_misses::total         6244                       # number of WriteReq misses
system.cpu0.dcache.demand_misses::cpu0.data         6569                       # number of demand (read+write) misses
system.cpu0.dcache.demand_misses::total          6569                       # number of demand (read+write) misses
system.cpu0.dcache.overall_misses::cpu0.data         6569                       # number of overall misses
system.cpu0.dcache.overall_misses::total         6569                       # number of overall misses
system.cpu0.dcache.ReadReq_miss_latency::cpu0.data     22851126                       # number of ReadReq miss cycles
system.cpu0.dcache.ReadReq_miss_latency::total     22851126                       # number of ReadReq miss cycles
system.cpu0.dcache.WriteReq_miss_latency::cpu0.data    374392566                       # number of WriteReq miss cycles
system.cpu0.dcache.WriteReq_miss_latency::total    374392566                       # number of WriteReq miss cycles
system.cpu0.dcache.demand_miss_latency::cpu0.data    397243692                       # number of demand (read+write) miss cycles
system.cpu0.dcache.demand_miss_latency::total    397243692                       # number of demand (read+write) miss cycles
system.cpu0.dcache.overall_miss_latency::cpu0.data    397243692                       # number of overall miss cycles
system.cpu0.dcache.overall_miss_latency::total    397243692                       # number of overall miss cycles
system.cpu0.dcache.ReadReq_accesses::cpu0.data        31378                       # number of ReadReq accesses(hits+misses)
system.cpu0.dcache.ReadReq_accesses::total        31378                       # number of ReadReq accesses(hits+misses)
system.cpu0.dcache.WriteReq_accesses::cpu0.data        61072                       # number of WriteReq accesses(hits+misses)
system.cpu0.dcache.WriteReq_accesses::total        61072                       # number of WriteReq accesses(hits+misses)
system.cpu0.dcache.demand_accesses::cpu0.data        92450                       # number of demand (read+write) accesses
system.cpu0.dcache.demand_accesses::total        92450                       # number of demand (read+write) accesses
system.cpu0.dcache.overall_accesses::cpu0.data        92450                       # number of overall (read+write) accesses
system.cpu0.dcache.overall_accesses::total        92450                       # number of overall (read+write) accesses
system.cpu0.dcache.ReadReq_miss_rate::cpu0.data     0.010358                       # miss rate for ReadReq accesses
system.cpu0.dcache.ReadReq_miss_rate::total     0.010358                       # miss rate for ReadReq accesses
system.cpu0.dcache.WriteReq_miss_rate::cpu0.data     0.102240                       # miss rate for WriteReq accesses
system.cpu0.dcache.WriteReq_miss_rate::total     0.102240                       # miss rate for WriteReq accesses
system.cpu0.dcache.demand_miss_rate::cpu0.data     0.071055                       # miss rate for demand accesses
system.cpu0.dcache.demand_miss_rate::total     0.071055                       # miss rate for demand accesses
system.cpu0.dcache.overall_miss_rate::cpu0.data     0.071055                       # miss rate for overall accesses
system.cpu0.dcache.overall_miss_rate::total     0.071055                       # miss rate for overall accesses
system.cpu0.dcache.ReadReq_avg_miss_latency::cpu0.data 70311.156923                       # average ReadReq miss latency
system.cpu0.dcache.ReadReq_avg_miss_latency::total 70311.156923                       # average ReadReq miss latency
system.cpu0.dcache.WriteReq_avg_miss_latency::cpu0.data 59960.372518                       # average WriteReq miss latency
system.cpu0.dcache.WriteReq_avg_miss_latency::total 59960.372518                       # average WriteReq miss latency
system.cpu0.dcache.demand_avg_miss_latency::cpu0.data 60472.475567                       # average overall miss latency
system.cpu0.dcache.demand_avg_miss_latency::total 60472.475567                       # average overall miss latency
system.cpu0.dcache.overall_avg_miss_latency::cpu0.data 60472.475567                       # average overall miss latency
system.cpu0.dcache.overall_avg_miss_latency::total 60472.475567                       # average overall miss latency
system.cpu0.dcache.blocked_cycles::no_mshrs         1302                       # number of cycles access was blocked
system.cpu0.dcache.blocked_cycles::no_targets            0                       # number of cycles access was blocked
system.cpu0.dcache.blocked::no_mshrs               13                       # number of cycles access was blocked
system.cpu0.dcache.blocked::no_targets              0                       # number of cycles access was blocked
system.cpu0.dcache.avg_blocked_cycles::no_mshrs   100.153846                       # average number of cycles each access was blocked
system.cpu0.dcache.avg_blocked_cycles::no_targets          nan                       # average number of cycles each access was blocked
system.cpu0.dcache.writebacks::writebacks         5788                       # number of writebacks
system.cpu0.dcache.writebacks::total             5788                       # number of writebacks
system.cpu0.dcache.ReadReq_mshr_hits::cpu0.data          132                       # number of ReadReq MSHR hits
system.cpu0.dcache.ReadReq_mshr_hits::total          132                       # number of ReadReq MSHR hits
system.cpu0.dcache.WriteReq_mshr_hits::cpu0.data            3                       # number of WriteReq MSHR hits
system.cpu0.dcache.WriteReq_mshr_hits::total            3                       # number of WriteReq MSHR hits
system.cpu0.dcache.demand_mshr_hits::cpu0.data          135                       # number of demand (read+write) MSHR hits
system.cpu0.dcache.demand_mshr_hits::total          135                       # number of demand (read+write) MSHR hits
system.cpu0.dcache.overall_mshr_hits::cpu0.data          135                       # number of overall MSHR hits
system.cpu0.dcache.overall_mshr_hits::total          135                       # number of overall MSHR hits
system.cpu0.dcache.ReadReq_mshr_misses::cpu0.data          193                       # number of ReadReq MSHR misses
system.cpu0.dcache.ReadReq_mshr_misses::total          193                       # number of ReadReq MSHR misses
system.cpu0.dcache.WriteReq_mshr_misses::cpu0.data         6241                       # number of WriteReq MSHR misses
system.cpu0.dcache.WriteReq_mshr_misses::total         6241                       # number of WriteReq MSHR misses
system.cpu0.dcache.demand_mshr_misses::cpu0.data         6434                       # number of demand (read+write) MSHR misses
system.cpu0.dcache.demand_mshr_misses::total         6434                       # number of demand (read+write) MSHR misses
system.cpu0.dcache.overall_mshr_misses::cpu0.data         6434                       # number of overall MSHR misses
system.cpu0.dcache.overall_mshr_misses::total         6434                       # number of overall MSHR misses
system.cpu0.dcache.ReadReq_mshr_miss_latency::cpu0.data     13983003                       # number of ReadReq MSHR miss cycles
system.cpu0.dcache.ReadReq_mshr_miss_latency::total     13983003                       # number of ReadReq MSHR miss cycles
system.cpu0.dcache.WriteReq_mshr_miss_latency::cpu0.data    370117512                       # number of WriteReq MSHR miss cycles
system.cpu0.dcache.WriteReq_mshr_miss_latency::total    370117512                       # number of WriteReq MSHR miss cycles
system.cpu0.dcache.demand_mshr_miss_latency::cpu0.data    384100515                       # number of demand (read+write) MSHR miss cycles
system.cpu0.dcache.demand_mshr_miss_latency::total    384100515                       # number of demand (read+write) MSHR miss cycles
system.cpu0.dcache.overall_mshr_miss_latency::cpu0.data    384100515                       # number of overall MSHR miss cycles
system.cpu0.dcache.overall_mshr_miss_latency::total    384100515                       # number of overall MSHR miss cycles
system.cpu0.dcache.ReadReq_mshr_miss_rate::cpu0.data     0.006151                       # mshr miss rate for ReadReq accesses
system.cpu0.dcache.ReadReq_mshr_miss_rate::total     0.006151                       # mshr miss rate for ReadReq accesses
system.cpu0.dcache.WriteReq_mshr_miss_rate::cpu0.data     0.102191                       # mshr miss rate for WriteReq accesses
system.cpu0.dcache.WriteReq_mshr_miss_rate::total     0.102191                       # mshr miss rate for WriteReq accesses
system.cpu0.dcache.demand_mshr_miss_rate::cpu0.data     0.069594                       # mshr miss rate for demand accesses
system.cpu0.dcache.demand_mshr_miss_rate::total     0.069594                       # mshr miss rate for demand accesses
system.cpu0.dcache.overall_mshr_miss_rate::cpu0.data     0.069594                       # mshr miss rate for overall accesses
system.cpu0.dcache.overall_mshr_miss_rate::total     0.069594                       # mshr miss rate for overall accesses
system.cpu0.dcache.ReadReq_avg_mshr_miss_latency::cpu0.data 72450.792746                       # average ReadReq mshr miss latency
system.cpu0.dcache.ReadReq_avg_mshr_miss_latency::total 72450.792746                       # average ReadReq mshr miss latency
system.cpu0.dcache.WriteReq_avg_mshr_miss_latency::cpu0.data 59304.199968                       # average WriteReq mshr miss latency
system.cpu0.dcache.WriteReq_avg_mshr_miss_latency::total 59304.199968                       # average WriteReq mshr miss latency
system.cpu0.dcache.demand_avg_mshr_miss_latency::cpu0.data 59698.556885                       # average overall mshr miss latency
system.cpu0.dcache.demand_avg_mshr_miss_latency::total 59698.556885                       # average overall mshr miss latency
system.cpu0.dcache.overall_avg_mshr_miss_latency::cpu0.data 59698.556885                       # average overall mshr miss latency
system.cpu0.dcache.overall_avg_mshr_miss_latency::total 59698.556885                       # average overall mshr miss latency
system.cpu0.dtb_walker_cache.tags.pwrStateResidencyTicks::UNDEFINED    446163057                       # Cumulative time (in ticks) in various power states
system.cpu0.dtb_walker_cache.tags.replacements            0                       # number of replacements
system.cpu0.dtb_walker_cache.tags.tagsinuse            0                       # Cycle average of tags in use
system.cpu0.dtb_walker_cache.tags.total_refs            0                       # Total number of references to valid blocks.
system.cpu0.dtb_walker_cache.tags.sampled_refs            0                       # Sample count of references to valid blocks.
system.cpu0.dtb_walker_cache.tags.avg_refs          nan                       # Average number of references to valid blocks.
system.cpu0.dtb_walker_cache.tags.warmup_cycle            0                       # Cycle when the warmup percentage was hit.
system.cpu0.dtb_walker_cache.tags.tag_accesses            0                       # Number of tag accesses
system.cpu0.dtb_walker_cache.tags.data_accesses            0                       # Number of data accesses
system.cpu0.dtb_walker_cache.pwrStateResidencyTicks::UNDEFINED    446163057                       # Cumulative time (in ticks) in various power states
system.cpu0.dtb_walker_cache.blocked_cycles::no_mshrs            0                       # number of cycles access was blocked
system.cpu0.dtb_walker_cache.blocked_cycles::no_targets            0                       # number of cycles access was blocked
system.cpu0.dtb_walker_cache.blocked::no_mshrs            0                       # number of cycles access was blocked
system.cpu0.dtb_walker_cache.blocked::no_targets            0                       # number of cycles access was blocked
system.cpu0.dtb_walker_cache.avg_blocked_cycles::no_mshrs          nan                       # average number of cycles each access was blocked
system.cpu0.dtb_walker_cache.avg_blocked_cycles::no_targets          nan                       # average number of cycles each access was blocked
system.cpu0.icache.tags.pwrStateResidencyTicks::UNDEFINED    446163057                       # Cumulative time (in ticks) in various power states
system.cpu0.icache.tags.replacements              329                       # number of replacements
system.cpu0.icache.tags.tagsinuse          493.085284                       # Cycle average of tags in use
system.cpu0.icache.tags.total_refs              38659                       # Total number of references to valid blocks.
system.cpu0.icache.tags.sampled_refs              840                       # Sample count of references to valid blocks.
system.cpu0.icache.tags.avg_refs            46.022619                       # Average number of references to valid blocks.
system.cpu0.icache.tags.warmup_cycle            75591                       # Cycle when the warmup percentage was hit.
system.cpu0.icache.tags.occ_blocks::cpu0.inst   493.085284                       # Average occupied blocks per requestor
system.cpu0.icache.tags.occ_percent::cpu0.inst     0.963057                       # Average percentage of cache occupancy
system.cpu0.icache.tags.occ_percent::total     0.963057                       # Average percentage of cache occupancy
system.cpu0.icache.tags.occ_task_id_blocks::1024          511                       # Occupied blocks per task id
system.cpu0.icache.tags.age_task_id_blocks_1024::2          511                       # Occupied blocks per task id
system.cpu0.icache.tags.occ_task_id_percent::1024     0.998047                       # Percentage of cache occupancy per task id
system.cpu0.icache.tags.tag_accesses           318456                       # Number of tag accesses
system.cpu0.icache.tags.data_accesses          318456                       # Number of data accesses
system.cpu0.icache.pwrStateResidencyTicks::UNDEFINED    446163057                       # Cumulative time (in ticks) in various power states
system.cpu0.icache.ReadReq_hits::cpu0.inst        38659                       # number of ReadReq hits
system.cpu0.icache.ReadReq_hits::total          38659                       # number of ReadReq hits
system.cpu0.icache.demand_hits::cpu0.inst        38659                       # number of demand (read+write) hits
system.cpu0.icache.demand_hits::total           38659                       # number of demand (read+write) hits
system.cpu0.icache.overall_hits::cpu0.inst        38659                       # number of overall hits
system.cpu0.icache.overall_hits::total          38659                       # number of overall hits
system.cpu0.icache.ReadReq_misses::cpu0.inst         1043                       # number of ReadReq misses
system.cpu0.icache.ReadReq_misses::total         1043                       # number of ReadReq misses
system.cpu0.icache.demand_misses::cpu0.inst         1043                       # number of demand (read+write) misses
system.cpu0.icache.demand_misses::total          1043                       # number of demand (read+write) misses
system.cpu0.icache.overall_misses::cpu0.inst         1043                       # number of overall misses
system.cpu0.icache.overall_misses::total         1043                       # number of overall misses
system.cpu0.icache.ReadReq_miss_latency::cpu0.inst     60255681                       # number of ReadReq miss cycles
system.cpu0.icache.ReadReq_miss_latency::total     60255681                       # number of ReadReq miss cycles
system.cpu0.icache.demand_miss_latency::cpu0.inst     60255681                       # number of demand (read+write) miss cycles
system.cpu0.icache.demand_miss_latency::total     60255681                       # number of demand (read+write) miss cycles
system.cpu0.icache.overall_miss_latency::cpu0.inst     60255681                       # number of overall miss cycles
system.cpu0.icache.overall_miss_latency::total     60255681                       # number of overall miss cycles
system.cpu0.icache.ReadReq_accesses::cpu0.inst        39702                       # number of ReadReq accesses(hits+misses)
system.cpu0.icache.ReadReq_accesses::total        39702                       # number of ReadReq accesses(hits+misses)
system.cpu0.icache.demand_accesses::cpu0.inst        39702                       # number of demand (read+write) accesses
system.cpu0.icache.demand_accesses::total        39702                       # number of demand (read+write) accesses
system.cpu0.icache.overall_accesses::cpu0.inst        39702                       # number of overall (read+write) accesses
system.cpu0.icache.overall_accesses::total        39702                       # number of overall (read+write) accesses
system.cpu0.icache.ReadReq_miss_rate::cpu0.inst     0.026271                       # miss rate for ReadReq accesses
system.cpu0.icache.ReadReq_miss_rate::total     0.026271                       # miss rate for ReadReq accesses
system.cpu0.icache.demand_miss_rate::cpu0.inst     0.026271                       # miss rate for demand accesses
system.cpu0.icache.demand_miss_rate::total     0.026271                       # miss rate for demand accesses
system.cpu0.icache.overall_miss_rate::cpu0.inst     0.026271                       # miss rate for overall accesses
system.cpu0.icache.overall_miss_rate::total     0.026271                       # miss rate for overall accesses
system.cpu0.icache.ReadReq_avg_miss_latency::cpu0.inst 57771.506232                       # average ReadReq miss latency
system.cpu0.icache.ReadReq_avg_miss_latency::total 57771.506232                       # average ReadReq miss latency
system.cpu0.icache.demand_avg_miss_latency::cpu0.inst 57771.506232                       # average overall miss latency
system.cpu0.icache.demand_avg_miss_latency::total 57771.506232                       # average overall miss latency
system.cpu0.icache.overall_avg_miss_latency::cpu0.inst 57771.506232                       # average overall miss latency
system.cpu0.icache.overall_avg_miss_latency::total 57771.506232                       # average overall miss latency
system.cpu0.icache.blocked_cycles::no_mshrs         1184                       # number of cycles access was blocked
system.cpu0.icache.blocked_cycles::no_targets            0                       # number of cycles access was blocked
system.cpu0.icache.blocked::no_mshrs               19                       # number of cycles access was blocked
system.cpu0.icache.blocked::no_targets              0                       # number of cycles access was blocked
system.cpu0.icache.avg_blocked_cycles::no_mshrs    62.315789                       # average number of cycles each access was blocked
system.cpu0.icache.avg_blocked_cycles::no_targets          nan                       # average number of cycles each access was blocked
system.cpu0.icache.writebacks::writebacks          329                       # number of writebacks
system.cpu0.icache.writebacks::total              329                       # number of writebacks
system.cpu0.icache.ReadReq_mshr_hits::cpu0.inst          203                       # number of ReadReq MSHR hits
system.cpu0.icache.ReadReq_mshr_hits::total          203                       # number of ReadReq MSHR hits
system.cpu0.icache.demand_mshr_hits::cpu0.inst          203                       # number of demand (read+write) MSHR hits
system.cpu0.icache.demand_mshr_hits::total          203                       # number of demand (read+write) MSHR hits
system.cpu0.icache.overall_mshr_hits::cpu0.inst          203                       # number of overall MSHR hits
system.cpu0.icache.overall_mshr_hits::total          203                       # number of overall MSHR hits
system.cpu0.icache.ReadReq_mshr_misses::cpu0.inst          840                       # number of ReadReq MSHR misses
system.cpu0.icache.ReadReq_mshr_misses::total          840                       # number of ReadReq MSHR misses
system.cpu0.icache.demand_mshr_misses::cpu0.inst          840                       # number of demand (read+write) MSHR misses
system.cpu0.icache.demand_mshr_misses::total          840                       # number of demand (read+write) MSHR misses
system.cpu0.icache.overall_mshr_misses::cpu0.inst          840                       # number of overall MSHR misses
system.cpu0.icache.overall_mshr_misses::total          840                       # number of overall MSHR misses
system.cpu0.icache.ReadReq_mshr_miss_latency::cpu0.inst     49653295                       # number of ReadReq MSHR miss cycles
system.cpu0.icache.ReadReq_mshr_miss_latency::total     49653295                       # number of ReadReq MSHR miss cycles
system.cpu0.icache.demand_mshr_miss_latency::cpu0.inst     49653295                       # number of demand (read+write) MSHR miss cycles
system.cpu0.icache.demand_mshr_miss_latency::total     49653295                       # number of demand (read+write) MSHR miss cycles
system.cpu0.icache.overall_mshr_miss_latency::cpu0.inst     49653295                       # number of overall MSHR miss cycles
system.cpu0.icache.overall_mshr_miss_latency::total     49653295                       # number of overall MSHR miss cycles
system.cpu0.icache.ReadReq_mshr_miss_rate::cpu0.inst     0.021158                       # mshr miss rate for ReadReq accesses
system.cpu0.icache.ReadReq_mshr_miss_rate::total     0.021158                       # mshr miss rate for ReadReq accesses
system.cpu0.icache.demand_mshr_miss_rate::cpu0.inst     0.021158                       # mshr miss rate for demand accesses
system.cpu0.icache.demand_mshr_miss_rate::total     0.021158                       # mshr miss rate for demand accesses
system.cpu0.icache.overall_mshr_miss_rate::cpu0.inst     0.021158                       # mshr miss rate for overall accesses
system.cpu0.icache.overall_mshr_miss_rate::total     0.021158                       # mshr miss rate for overall accesses
system.cpu0.icache.ReadReq_avg_mshr_miss_latency::cpu0.inst 59111.065476                       # average ReadReq mshr miss latency
system.cpu0.icache.ReadReq_avg_mshr_miss_latency::total 59111.065476                       # average ReadReq mshr miss latency
system.cpu0.icache.demand_avg_mshr_miss_latency::cpu0.inst 59111.065476                       # average overall mshr miss latency
system.cpu0.icache.demand_avg_mshr_miss_latency::total 59111.065476                       # average overall mshr miss latency
system.cpu0.icache.overall_avg_mshr_miss_latency::cpu0.inst 59111.065476                       # average overall mshr miss latency
system.cpu0.icache.overall_avg_mshr_miss_latency::total 59111.065476                       # average overall mshr miss latency
system.cpu0.itb_walker_cache.tags.pwrStateResidencyTicks::UNDEFINED    446163057                       # Cumulative time (in ticks) in various power states
system.cpu0.itb_walker_cache.tags.replacements            0                       # number of replacements
system.cpu0.itb_walker_cache.tags.tagsinuse            0                       # Cycle average of tags in use
system.cpu0.itb_walker_cache.tags.total_refs            0                       # Total number of references to valid blocks.
system.cpu0.itb_walker_cache.tags.sampled_refs            0                       # Sample count of references to valid blocks.
system.cpu0.itb_walker_cache.tags.avg_refs          nan                       # Average number of references to valid blocks.
system.cpu0.itb_walker_cache.tags.warmup_cycle            0                       # Cycle when the warmup percentage was hit.
system.cpu0.itb_walker_cache.tags.tag_accesses            0                       # Number of tag accesses
system.cpu0.itb_walker_cache.tags.data_accesses            0                       # Number of data accesses
system.cpu0.itb_walker_cache.pwrStateResidencyTicks::UNDEFINED    446163057                       # Cumulative time (in ticks) in various power states
system.cpu0.itb_walker_cache.blocked_cycles::no_mshrs            0                       # number of cycles access was blocked
system.cpu0.itb_walker_cache.blocked_cycles::no_targets            0                       # number of cycles access was blocked
system.cpu0.itb_walker_cache.blocked::no_mshrs            0                       # number of cycles access was blocked
system.cpu0.itb_walker_cache.blocked::no_targets            0                       # number of cycles access was blocked
system.cpu0.itb_walker_cache.avg_blocked_cycles::no_mshrs          nan                       # average number of cycles each access was blocked
system.cpu0.itb_walker_cache.avg_blocked_cycles::no_targets          nan                       # average number of cycles each access was blocked
system.cpu0.l2cache.tags.pwrStateResidencyTicks::UNDEFINED    446163057                       # Cumulative time (in ticks) in various power states
system.cpu0.l2cache.tags.replacements            3139                       # number of replacements
system.cpu0.l2cache.tags.tagsinuse        3025.350264                       # Cycle average of tags in use
system.cpu0.l2cache.tags.total_refs              6323                       # Total number of references to valid blocks.
system.cpu0.l2cache.tags.sampled_refs            7193                       # Sample count of references to valid blocks.
system.cpu0.l2cache.tags.avg_refs            0.879049                       # Average number of references to valid blocks.
system.cpu0.l2cache.tags.warmup_cycle           73000                       # Cycle when the warmup percentage was hit.
system.cpu0.l2cache.tags.occ_blocks::writebacks     2.919904                       # Average occupied blocks per requestor
system.cpu0.l2cache.tags.occ_blocks::cpu0.inst   418.452664                       # Average occupied blocks per requestor
system.cpu0.l2cache.tags.occ_blocks::cpu0.data  2603.977695                       # Average occupied blocks per requestor
system.cpu0.l2cache.tags.occ_percent::writebacks     0.000713                       # Average percentage of cache occupancy
system.cpu0.l2cache.tags.occ_percent::cpu0.inst     0.102161                       # Average percentage of cache occupancy
system.cpu0.l2cache.tags.occ_percent::cpu0.data     0.635737                       # Average percentage of cache occupancy
system.cpu0.l2cache.tags.occ_percent::total     0.738611                       # Average percentage of cache occupancy
system.cpu0.l2cache.tags.occ_task_id_blocks::1024         4054                       # Occupied blocks per task id
system.cpu0.l2cache.tags.age_task_id_blocks_1024::0           93                       # Occupied blocks per task id
system.cpu0.l2cache.tags.age_task_id_blocks_1024::1          163                       # Occupied blocks per task id
system.cpu0.l2cache.tags.age_task_id_blocks_1024::2         3798                       # Occupied blocks per task id
system.cpu0.l2cache.tags.occ_task_id_percent::1024     0.989746                       # Percentage of cache occupancy per task id
system.cpu0.l2cache.tags.tag_accesses           61265                       # Number of tag accesses
system.cpu0.l2cache.tags.data_accesses          61265                       # Number of data accesses
system.cpu0.l2cache.pwrStateResidencyTicks::UNDEFINED    446163057                       # Cumulative time (in ticks) in various power states
system.cpu0.l2cache.WritebackDirty_hits::writebacks         5788                       # number of WritebackDirty hits
system.cpu0.l2cache.WritebackDirty_hits::total         5788                       # number of WritebackDirty hits
system.cpu0.l2cache.WritebackClean_hits::writebacks          326                       # number of WritebackClean hits
system.cpu0.l2cache.WritebackClean_hits::total          326                       # number of WritebackClean hits
system.cpu0.l2cache.ReadExReq_hits::cpu0.data            6                       # number of ReadExReq hits
system.cpu0.l2cache.ReadExReq_hits::total            6                       # number of ReadExReq hits
system.cpu0.l2cache.ReadCleanReq_hits::cpu0.inst           69                       # number of ReadCleanReq hits
system.cpu0.l2cache.ReadCleanReq_hits::total           69                       # number of ReadCleanReq hits
system.cpu0.l2cache.ReadSharedReq_hits::cpu0.data           14                       # number of ReadSharedReq hits
system.cpu0.l2cache.ReadSharedReq_hits::total           14                       # number of ReadSharedReq hits
system.cpu0.l2cache.demand_hits::cpu0.inst           69                       # number of demand (read+write) hits
system.cpu0.l2cache.demand_hits::cpu0.data           20                       # number of demand (read+write) hits
system.cpu0.l2cache.demand_hits::total             89                       # number of demand (read+write) hits
system.cpu0.l2cache.overall_hits::cpu0.inst           69                       # number of overall hits
system.cpu0.l2cache.overall_hits::cpu0.data           20                       # number of overall hits
system.cpu0.l2cache.overall_hits::total            89                       # number of overall hits
system.cpu0.l2cache.ReadExReq_misses::cpu0.data         6235                       # number of ReadExReq misses
[...]
system.l3.demand_mshr_miss_latency::cpu1.inst     38925204                       # number of demand (read+write) MSHR miss cycles
system.l3.demand_mshr_miss_latency::cpu1.data    294634209                       # number of demand (read+write) MSHR miss cycles
system.l3.demand_mshr_miss_latency::cpu2.inst     39532766                       # number of demand (read+write) MSHR miss cycles
system.l3.demand_mshr_miss_latency::cpu2.data    288574085                       # number of demand (read+write) MSHR miss cycles
system.l3.demand_mshr_miss_latency::cpu3.inst     39896938                       # number of demand (read+write) MSHR miss cycles
system.l3.demand_mshr_miss_latency::cpu3.data    294772245                       # number of demand (read+write) MSHR miss cycles
system.l3.demand_mshr_miss_latency::total   1324846754                       # number of demand (read+write) MSHR miss cycles
system.l3.overall_mshr_miss_latency::cpu0.inst     38119416                       # number of overall MSHR miss cycles
system.l3.overall_mshr_miss_latency::cpu0.data    290391891                       # number of overall MSHR miss cycles
system.l3.overall_mshr_miss_latency::cpu1.inst     38925204                       # number of overall MSHR miss cycles
system.l3.overall_mshr_miss_latency::cpu1.data    294634209                       # number of overall MSHR miss cycles
system.l3.overall_mshr_miss_latency::cpu2.inst     39532766                       # number of overall MSHR miss cycles
system.l3.overall_mshr_miss_latency::cpu2.data    288574085                       # number of overall MSHR miss cycles
system.l3.overall_mshr_miss_latency::cpu3.inst     39896938                       # number of overall MSHR miss cycles
system.l3.overall_mshr_miss_latency::cpu3.data    294772245                       # number of overall MSHR miss cycles
system.l3.overall_mshr_miss_latency::total   1324846754                       # number of overall MSHR miss cycles
system.l3.ReadExReq_mshr_miss_rate::cpu0.data            1                       # mshr miss rate for ReadExReq accesses
system.l3.ReadExReq_mshr_miss_rate::cpu1.data     0.999667                       # mshr miss rate for ReadExReq accesses
system.l3.ReadExReq_mshr_miss_rate::cpu2.data     0.999839                       # mshr miss rate for ReadExReq accesses
system.l3.ReadExReq_mshr_miss_rate::cpu3.data     0.999832                       # mshr miss rate for ReadExReq accesses
system.l3.ReadExReq_mshr_miss_rate::total     0.999836                       # mshr miss rate for ReadExReq accesses
system.l3.ReadSharedReq_mshr_miss_rate::cpu0.inst     0.997403                       # mshr miss rate for ReadSharedReq accesses
system.l3.ReadSharedReq_mshr_miss_rate::cpu0.data     0.966480                       # mshr miss rate for ReadSharedReq accesses
system.l3.ReadSharedReq_mshr_miss_rate::cpu1.inst     0.996073                       # mshr miss rate for ReadSharedReq accesses
system.l3.ReadSharedReq_mshr_miss_rate::cpu1.data     0.970414                       # mshr miss rate for ReadSharedReq accesses
system.l3.ReadSharedReq_mshr_miss_rate::cpu2.inst     0.998705                       # mshr miss rate for ReadSharedReq accesses
system.l3.ReadSharedReq_mshr_miss_rate::cpu2.data     0.970588                       # mshr miss rate for ReadSharedReq accesses
system.l3.ReadSharedReq_mshr_miss_rate::cpu3.inst     0.998703                       # mshr miss rate for ReadSharedReq accesses
system.l3.ReadSharedReq_mshr_miss_rate::cpu3.data     0.971264                       # mshr miss rate for ReadSharedReq accesses
system.l3.ReadSharedReq_mshr_miss_rate::total     0.992571                       # mshr miss rate for ReadSharedReq accesses
system.l3.demand_mshr_miss_rate::cpu0.inst     0.997403                       # mshr miss rate for demand accesses
system.l3.demand_mshr_miss_rate::cpu0.data     0.999065                       # mshr miss rate for demand accesses
system.l3.demand_mshr_miss_rate::cpu1.inst     0.996073                       # mshr miss rate for demand accesses
system.l3.demand_mshr_miss_rate::cpu1.data     0.998866                       # mshr miss rate for demand accesses
system.l3.demand_mshr_miss_rate::cpu2.inst     0.998705                       # mshr miss rate for demand accesses
system.l3.demand_mshr_miss_rate::cpu2.data     0.999062                       # mshr miss rate for demand accesses
system.l3.demand_mshr_miss_rate::cpu3.inst     0.998703                       # mshr miss rate for demand accesses
system.l3.demand_mshr_miss_rate::cpu3.data     0.999022                       # mshr miss rate for demand accesses
system.l3.demand_mshr_miss_rate::total       0.998865                       # mshr miss rate for demand accesses
system.l3.overall_mshr_miss_rate::cpu0.inst     0.997403                       # mshr miss rate for overall accesses
system.l3.overall_mshr_miss_rate::cpu0.data     0.999065                       # mshr miss rate for overall accesses
system.l3.overall_mshr_miss_rate::cpu1.inst     0.996073                       # mshr miss rate for overall accesses
system.l3.overall_mshr_miss_rate::cpu1.data     0.998866                       # mshr miss rate for overall accesses
system.l3.overall_mshr_miss_rate::cpu2.inst     0.998705                       # mshr miss rate for overall accesses
system.l3.overall_mshr_miss_rate::cpu2.data     0.999062                       # mshr miss rate for overall accesses
system.l3.overall_mshr_miss_rate::cpu3.inst     0.998703                       # mshr miss rate for overall accesses
system.l3.overall_mshr_miss_rate::cpu3.data     0.999022                       # mshr miss rate for overall accesses
system.l3.overall_mshr_miss_rate::total      0.998865                       # mshr miss rate for overall accesses
system.l3.ReadExReq_avg_mshr_miss_latency::cpu0.data 44768.862229                       # average ReadExReq mshr miss latency
system.l3.ReadExReq_avg_mshr_miss_latency::cpu1.data 47398.480500                       # average ReadExReq mshr miss latency
system.l3.ReadExReq_avg_mshr_miss_latency::cpu2.data 44740.847575                       # average ReadExReq mshr miss latency
system.l3.ReadExReq_avg_mshr_miss_latency::cpu3.data 47679.636135                       # average ReadExReq mshr miss latency
system.l3.ReadExReq_avg_mshr_miss_latency::total 46118.236303                       # average ReadExReq mshr miss latency
system.l3.ReadSharedReq_avg_mshr_miss_latency::cpu0.inst 49634.656250                       # average ReadSharedReq mshr miss latency
system.l3.ReadSharedReq_avg_mshr_miss_latency::cpu0.data 65075.346821                       # average ReadSharedReq mshr miss latency
system.l3.ReadSharedReq_avg_mshr_miss_latency::cpu1.inst 51150.070959                       # average ReadSharedReq mshr miss latency
system.l3.ReadSharedReq_avg_mshr_miss_latency::cpu1.data 62459.304878                       # average ReadSharedReq mshr miss latency
system.l3.ReadSharedReq_avg_mshr_miss_latency::cpu2.inst 51274.664073                       # average ReadSharedReq mshr miss latency
system.l3.ReadSharedReq_avg_mshr_miss_latency::cpu2.data 60712.533333                       # average ReadSharedReq mshr miss latency
system.l3.ReadSharedReq_avg_mshr_miss_latency::cpu3.inst 51814.205195                       # average ReadSharedReq mshr miss latency
system.l3.ReadSharedReq_avg_mshr_miss_latency::cpu3.data 62449.313609                       # average ReadSharedReq mshr miss latency
system.l3.ReadSharedReq_avg_mshr_miss_latency::total 53073.292435                       # average ReadSharedReq mshr miss latency
system.l3.demand_avg_mshr_miss_latency::cpu0.inst 49634.656250                       # average overall mshr miss latency
system.l3.demand_avg_mshr_miss_latency::cpu0.data 45317.086610                       # average overall mshr miss latency
system.l3.demand_avg_mshr_miss_latency::cpu1.inst 51150.070959                       # average overall mshr miss latency
system.l3.demand_avg_mshr_miss_latency::cpu1.data 47799.190299                       # average overall mshr miss latency
system.l3.demand_avg_mshr_miss_latency::cpu2.inst 51274.664073                       # average overall mshr miss latency
system.l3.demand_avg_mshr_miss_latency::cpu2.data 45153.197465                       # average overall mshr miss latency
system.l3.demand_avg_mshr_miss_latency::cpu3.inst 51814.205195                       # average overall mshr miss latency
system.l3.demand_avg_mshr_miss_latency::cpu3.data 48086.826264                       # average overall mshr miss latency
system.l3.demand_avg_mshr_miss_latency::total 47042.103256                       # average overall mshr miss latency
system.l3.overall_avg_mshr_miss_latency::cpu0.inst 49634.656250                       # average overall mshr miss latency
system.l3.overall_avg_mshr_miss_latency::cpu0.data 45317.086610                       # average overall mshr miss latency
system.l3.overall_avg_mshr_miss_latency::cpu1.inst 51150.070959                       # average overall mshr miss latency
system.l3.overall_avg_mshr_miss_latency::cpu1.data 47799.190299                       # average overall mshr miss latency
system.l3.overall_avg_mshr_miss_latency::cpu2.inst 51274.664073                       # average overall mshr miss latency
system.l3.overall_avg_mshr_miss_latency::cpu2.data 45153.197465                       # average overall mshr miss latency
system.l3.overall_avg_mshr_miss_latency::cpu3.inst 51814.205195                       # average overall mshr miss latency
system.l3.overall_avg_mshr_miss_latency::cpu3.data 48086.826264                       # average overall mshr miss latency
system.l3.overall_avg_mshr_miss_latency::total 47042.103256                       # average overall mshr miss latency
system.membus.snoop_filter.tot_requests         29472                       # Total number of requests made to the snoop filter.
system.membus.snoop_filter.hit_single_requests         1310                       # Number of requests hitting in the snoop filter with a single holder of the requested data.
system.membus.snoop_filter.hit_multi_requests            0                       # Number of requests hitting in the snoop filter with multiple (>1) holders of the requested data.
system.membus.snoop_filter.tot_snoops               0                       # Total number of snoops made to the snoop filter.
system.membus.snoop_filter.hit_single_snoops            0                       # Number of snoops hitting in the snoop filter with a single holder of the requested data.
system.membus.snoop_filter.hit_multi_snoops            0                       # Number of snoops hitting in the snoop filter with multiple (>1) holders of the requested data.
system.membus.pwrStateResidencyTicks::UNDEFINED    446163057                       # Cumulative time (in ticks) in various power states
system.membus.trans_dist::ReadResp               3741                       # Transaction distribution
system.membus.trans_dist::WritebackDirty         1194                       # Transaction distribution
system.membus.trans_dist::CleanEvict              116                       # Transaction distribution
system.membus.trans_dist::ReadExReq             24421                       # Transaction distribution
system.membus.trans_dist::ReadExResp            24419                       # Transaction distribution
system.membus.trans_dist::ReadSharedReq          3741                       # Transaction distribution
system.membus.pkt_count_system.l3.mem_side::system.mem_ctrls.port        57632                       # Packet count per connected master and slave (bytes)
system.membus.pkt_count_system.l3.mem_side::total        57632                       # Packet count per connected master and slave (bytes)
system.membus.pkt_count::total                  57632                       # Packet count per connected master and slave (bytes)
system.membus.pkt_size_system.l3.mem_side::system.mem_ctrls.port      1878656                       # Cumulative packet size per connected master and slave (bytes)
system.membus.pkt_size_system.l3.mem_side::total      1878656                       # Cumulative packet size per connected master and slave (bytes)
system.membus.pkt_size::total                 1878656                       # Cumulative packet size per connected master and slave (bytes)
system.membus.snoops                                0                       # Total snoops (count)
system.membus.snoopTraffic                          0                       # Total snoop traffic (bytes)
system.membus.snoop_fanout::samples             28162                       # Request fanout histogram
system.membus.snoop_fanout::mean                    0                       # Request fanout histogram
system.membus.snoop_fanout::stdev                   0                       # Request fanout histogram
system.membus.snoop_fanout::underflows              0      0.00%      0.00% # Request fanout histogram
system.membus.snoop_fanout::0                   28162    100.00%    100.00% # Request fanout histogram
system.membus.snoop_fanout::1                       0      0.00%    100.00% # Request fanout histogram
system.membus.snoop_fanout::overflows               0      0.00%    100.00% # Request fanout histogram
system.membus.snoop_fanout::min_value               0                       # Request fanout histogram
system.membus.snoop_fanout::max_value               0                       # Request fanout histogram
system.membus.snoop_fanout::total               28162                       # Request fanout histogram
system.membus.reqLayer8.occupancy            37672059                       # Layer occupancy (ticks)
system.membus.reqLayer8.utilization               8.4                       # Layer utilization (%)
system.membus.respLayer1.occupancy          152720059                       # Layer occupancy (ticks)
system.membus.respLayer1.utilization             34.2                       # Layer utilization (%)
system.tol3bus.snoop_filter.tot_requests        38372                       # Total number of requests made to the snoop filter.
system.tol3bus.snoop_filter.hit_single_requests        10177                       # Number of requests hitting in the snoop filter with a single holder of the requested data.
system.tol3bus.snoop_filter.hit_multi_requests            0                       # Number of requests hitting in the snoop filter with multiple (>1) holders of the requested data.
system.tol3bus.snoop_filter.tot_snoops            128                       # Total number of snoops made to the snoop filter.
system.tol3bus.snoop_filter.hit_single_snoops          128                       # Number of snoops hitting in the snoop filter with a single holder of the requested data.
system.tol3bus.snoop_filter.hit_multi_snoops            0                       # Number of snoops hitting in the snoop filter with multiple (>1) holders of the requested data.
system.tol3bus.pwrStateResidencyTicks::UNDEFINED    446163057                       # Cumulative time (in ticks) in various power states
system.tol3bus.trans_dist::ReadResp              3769                       # Transaction distribution
system.tol3bus.trans_dist::WritebackDirty        10160                       # Transaction distribution
system.tol3bus.trans_dist::CleanEvict            1456                       # Transaction distribution
system.tol3bus.trans_dist::ReadExReq            24426                       # Transaction distribution
system.tol3bus.trans_dist::ReadExResp           24422                       # Transaction distribution
system.tol3bus.trans_dist::ReadSharedReq         3769                       # Transaction distribution
system.tol3bus.pkt_count_system.cpu0.l2cache.mem_side::system.l3.cpu_side        17052                       # Packet count per connected master and slave (bytes)
system.tol3bus.pkt_count_system.cpu1.l2cache.mem_side::system.l3.cpu_side        16310                       # Packet count per connected master and slave (bytes)
system.tol3bus.pkt_count_system.cpu2.l2cache.mem_side::system.l3.cpu_side        17013                       # Packet count per connected master and slave (bytes)
system.tol3bus.pkt_count_system.cpu3.l2cache.mem_side::system.l3.cpu_side        16188                       # Packet count per connected master and slave (bytes)
system.tol3bus.pkt_count::total                 66563                       # Packet count per connected master and slave (bytes)
system.tol3bus.pkt_size_system.cpu0.l2cache.mem_side::system.l3.cpu_side       612416                       # Cumulative packet size per connected master and slave (bytes)
system.tol3bus.pkt_size_system.cpu1.l2cache.mem_side::system.l3.cpu_side       580928                       # Cumulative packet size per connected master and slave (bytes)
system.tol3bus.pkt_size_system.cpu2.l2cache.mem_side::system.l3.cpu_side       609728                       # Cumulative packet size per connected master and slave (bytes)
system.tol3bus.pkt_size_system.cpu3.l2cache.mem_side::system.l3.cpu_side       574912                       # Cumulative packet size per connected master and slave (bytes)
system.tol3bus.pkt_size::total                2377984                       # Cumulative packet size per connected master and slave (bytes)
system.tol3bus.snoops                            1439                       # Total snoops (count)
system.tol3bus.snoopTraffic                     76480                       # Total snoop traffic (bytes)
system.tol3bus.snoop_fanout::samples            29634                       # Request fanout histogram
system.tol3bus.snoop_fanout::mean            0.004319                       # Request fanout histogram
system.tol3bus.snoop_fanout::stdev           0.065581                       # Request fanout histogram
system.tol3bus.snoop_fanout::underflows             0      0.00%      0.00% # Request fanout histogram
system.tol3bus.snoop_fanout::0                  29506     99.57%     99.57% # Request fanout histogram
system.tol3bus.snoop_fanout::1                    128      0.43%    100.00% # Request fanout histogram
system.tol3bus.snoop_fanout::2                      0      0.00%    100.00% # Request fanout histogram
system.tol3bus.snoop_fanout::3                      0      0.00%    100.00% # Request fanout histogram
system.tol3bus.snoop_fanout::4                      0      0.00%    100.00% # Request fanout histogram
system.tol3bus.snoop_fanout::overflows              0      0.00%    100.00% # Request fanout histogram
system.tol3bus.snoop_fanout::min_value              0                       # Request fanout histogram
system.tol3bus.snoop_fanout::max_value              1                       # Request fanout histogram
system.tol3bus.snoop_fanout::total              29634                       # Request fanout histogram
system.tol3bus.reqLayer0.occupancy           72633109                       # Layer occupancy (ticks)
system.tol3bus.reqLayer0.utilization             16.3                       # Layer utilization (%)
system.tol3bus.respLayer0.occupancy          27409849                       # Layer occupancy (ticks)
system.tol3bus.respLayer0.utilization             6.1                       # Layer utilization (%)
system.tol3bus.respLayer1.occupancy          26476577                       # Layer occupancy (ticks)
system.tol3bus.respLayer1.utilization             5.9                       # Layer utilization (%)
system.tol3bus.respLayer2.occupancy          27345636                       # Layer occupancy (ticks)
system.tol3bus.respLayer2.utilization             6.1                       # Layer utilization (%)
system.tol3bus.respLayer3.occupancy          26342373                       # Layer occupancy (ticks)
system.tol3bus.respLayer3.utilization             5.9                       # Layer utilization (%)

---------- End Simulation Statistics   ----------
