
---------- Begin Simulation Statistics ----------
sim_seconds                                  0.097713                       # Number of seconds simulated
sim_ticks                                 97712975880                       # Number of ticks simulated
final_tick                                97712975880                       # Number of ticks from beginning of simulation (restored from checkpoints and never reset)
sim_freq                                 1000000000000                       # Frequency of simulated ticks
host_inst_rate                                 211323                       # Simulator instruction rate (inst/s)
host_op_rate                                   294797                       # Simulator op (including micro ops) rate (op/s)
host_tick_rate                               24910330                       # Simulator tick rate (ticks/s)
host_mem_usage                               33871380                       # Number of bytes of host memory used
host_seconds                                  3922.59                       # Real time elapsed on the host
sim_insts                                   828934041                       # Number of instructions simulated
sim_ops                                    1156366839                       # Number of ops (including micro ops) simulated
system.voltage_domain.voltage                       1                       # Voltage in Volts
system.clk_domain.clock                          1000                       # Clock period in ticks
system.mem_ctrls.pwrStateResidencyTicks::UNDEFINED  97712975880                       # Cumulative time (in ticks) in various power states
system.mem_ctrls.bytes_read::cpu0.inst         123584                       # Number of bytes read from this memory
system.mem_ctrls.bytes_read::cpu0.data      120814016                       # Number of bytes read from this memory
system.mem_ctrls.bytes_read::cpu1.inst         122752                       # Number of bytes read from this memory
system.mem_ctrls.bytes_read::cpu1.data      119926400                       # Number of bytes read from this memory
system.mem_ctrls.bytes_read::cpu2.inst         123840                       # Number of bytes read from this memory
system.mem_ctrls.bytes_read::cpu2.data      120394112                       # Number of bytes read from this memory
system.mem_ctrls.bytes_read::cpu3.inst         123072                       # Number of bytes read from this memory
system.mem_ctrls.bytes_read::cpu3.data      120483264                       # Number of bytes read from this memory
system.mem_ctrls.bytes_read::total          482111040                       # Number of bytes read from this memory
system.mem_ctrls.bytes_inst_read::cpu0.inst       123584                       # Number of instructions bytes read from this memory
system.mem_ctrls.bytes_inst_read::cpu1.inst       122752                       # Number of instructions bytes read from this memory
system.mem_ctrls.bytes_inst_read::cpu2.inst       123840                       # Number of instructions bytes read from this memory
system.mem_ctrls.bytes_inst_read::cpu3.inst       123072                       # Number of instructions bytes read from this memory
system.mem_ctrls.bytes_inst_read::total        493248                       # Number of instructions bytes read from this memory
system.mem_ctrls.bytes_written::writebacks    128394944                       # Number of bytes written to this memory
system.mem_ctrls.bytes_written::total       128394944                       # Number of bytes written to this memory
system.mem_ctrls.num_reads::cpu0.inst            1931                       # Number of read requests responded to by this memory
system.mem_ctrls.num_reads::cpu0.data         1887719                       # Number of read requests responded to by this memory
system.mem_ctrls.num_reads::cpu1.inst            1918                       # Number of read requests responded to by this memory
system.mem_ctrls.num_reads::cpu1.data         1873850                       # Number of read requests responded to by this memory
system.mem_ctrls.num_reads::cpu2.inst            1935                       # Number of read requests responded to by this memory
system.mem_ctrls.num_reads::cpu2.data         1881158                       # Number of read requests responded to by this memory
system.mem_ctrls.num_reads::cpu3.inst            1923                       # Number of read requests responded to by this memory
system.mem_ctrls.num_reads::cpu3.data         1882551                       # Number of read requests responded to by this memory
system.mem_ctrls.num_reads::total             7532985                       # Number of read requests responded to by this memory
system.mem_ctrls.num_writes::writebacks       2006171                       # Number of write requests responded to by this memory
system.mem_ctrls.num_writes::total            2006171                       # Number of write requests responded to by this memory
system.mem_ctrls.bw_read::cpu0.inst           1264765                       # Total read bandwidth from this memory (bytes/s)
system.mem_ctrls.bw_read::cpu0.data        1236417322                       # Total read bandwidth from this memory (bytes/s)
system.mem_ctrls.bw_read::cpu1.inst           1256251                       # Total read bandwidth from this memory (bytes/s)
system.mem_ctrls.bw_read::cpu1.data        1227333411                       # Total read bandwidth from this memory (bytes/s)
system.mem_ctrls.bw_read::cpu2.inst           1267385                       # Total read bandwidth from this memory (bytes/s)
system.mem_ctrls.bw_read::cpu2.data        1232120002                       # Total read bandwidth from this memory (bytes/s)
system.mem_ctrls.bw_read::cpu3.inst           1259526                       # Total read bandwidth from this memory (bytes/s)
system.mem_ctrls.bw_read::cpu3.data        1233032388                       # Total read bandwidth from this memory (bytes/s)
system.mem_ctrls.bw_read::total            4933951051                       # Total read bandwidth from this memory (bytes/s)
system.mem_ctrls.bw_inst_read::cpu0.inst      1264765                       # Instruction read bandwidth from this memory (bytes/s)
system.mem_ctrls.bw_inst_read::cpu1.inst      1256251                       # Instruction read bandwidth from this memory (bytes/s)
system.mem_ctrls.bw_inst_read::cpu2.inst      1267385                       # Instruction read bandwidth from this memory (bytes/s)
system.mem_ctrls.bw_inst_read::cpu3.inst      1259526                       # Instruction read bandwidth from this memory (bytes/s)
system.mem_ctrls.bw_inst_read::total          5047927                       # Instruction read bandwidth from this memory (bytes/s)
system.mem_ctrls.bw_write::writebacks      1314000959                       # Write bandwidth from this memory (bytes/s)
system.mem_ctrls.bw_write::total           1314000959                       # Write bandwidth from this memory (bytes/s)
system.mem_ctrls.bw_total::writebacks      1314000959                       # Total bandwidth to/from this memory (bytes/s)
system.mem_ctrls.bw_total::cpu0.inst          1264765                       # Total bandwidth to/from this memory (bytes/s)
system.mem_ctrls.bw_total::cpu0.data       1236417322                       # Total bandwidth to/from this memory (bytes/s)
system.mem_ctrls.bw_total::cpu1.inst          1256251                       # Total bandwidth to/from this memory (bytes/s)
system.mem_ctrls.bw_total::cpu1.data       1227333411                       # Total bandwidth to/from this memory (bytes/s)
system.mem_ctrls.bw_total::cpu2.inst          1267385                       # Total bandwidth to/from this memory (bytes/s)
system.mem_ctrls.bw_total::cpu2.data       1232120002                       # Total bandwidth to/from this memory (bytes/s)
system.mem_ctrls.bw_total::cpu3.inst          1259526                       # Total bandwidth to/from this memory (bytes/s)
system.mem_ctrls.bw_total::cpu3.data       1233032388                       # Total bandwidth to/from this memory (bytes/s)
system.mem_ctrls.bw_total::total           6247952009                       # Total bandwidth to/from this memory (bytes/s)
system.pwrStateResidencyTicks::UNDEFINED  97712975880                       # Cumulative time (in ticks) in various power states
system.cpu0.branchPred.lookups               12410991                       # Number of BP lookups
system.cpu0.branchPred.condPredicted         12410991                       # Number of conditional branches predicted
system.cpu0.branchPred.condIncorrect           157889                       # Number of conditional branches incorrect
system.cpu0.branchPred.BTBLookups             9971416                       # Number of BTB lookups
system.cpu0.branchPred.BTBHits                      0                       # Number of BTB hits
system.cpu0.branchPred.BTBCorrect                   0                       # Number of correct BTB predictions (this stat may not work properly.
system.cpu0.branchPred.BTBHitPct             0.000000                       # BTB Hit Percentage
system.cpu0.branchPred.usedRAS                1029703                       # Number of times the RAS was used to get a target.
system.cpu0.branchPred.RASInCorrect             16111                       # Number of incorrect RAS predictions.
system.cpu0.branchPred.indirectLookups        9971416                       # Number of indirect predictor lookups.
system.cpu0.branchPred.indirectHits           7856022                       # Number of indirect target hits.
system.cpu0.branchPred.indirectMisses         2115394                       # Number of indirect misses.
system.cpu0.branchPredindirectMispredicted        49679                       # Number of mispredicted indirect branches.
system.cpu_voltage_domain.voltage                   1                       # Voltage in Volts
system.cpu_clk_domain.clock                       333                       # Clock period in ticks
system.cpu0.dtb.walker.pwrStateResidencyTicks::UNDEFINED  97712975880                       # Cumulative time (in ticks) in various power states
system.cpu0.dtb.rdAccesses                   55889221                       # TLB accesses on read requests
system.cpu0.dtb.wrAccesses                   15228389                       # TLB accesses on write requests
system.cpu0.dtb.rdMisses                       237430                       # TLB misses on read requests
system.cpu0.dtb.wrMisses                        20250                       # TLB misses on write requests
system.cpu0.apic_clk_domain.clock                5328                       # Clock period in ticks
system.cpu0.interrupts.pwrStateResidencyTicks::UNDEFINED  97712975880                       # Cumulative time (in ticks) in various power states
system.cpu0.itb.walker.pwrStateResidencyTicks::UNDEFINED  97712975880                       # Cumulative time (in ticks) in various power states
system.cpu0.itb.rdAccesses                          0                       # TLB accesses on read requests
system.cpu0.itb.wrAccesses                   21999062                       # TLB accesses on write requests
system.cpu0.itb.rdMisses                            0                       # TLB misses on read requests
system.cpu0.itb.wrMisses                          366                       # TLB misses on write requests
system.cpu0.workload.numSyscalls                   80                       # Number of system calls
system.cpu0.pwrStateResidencyTicks::ON    97712975880                       # Cumulative time (in ticks) in various power states
system.cpu0.numCycles                       293432361                       # number of cpu cycles simulated
system.cpu0.numWorkItemsStarted                     0                       # number of work items this cpu started
system.cpu0.numWorkItemsCompleted                   0                       # number of work items this cpu completed
system.cpu0.fetch.icacheStallCycles          22164337                       # Number of cycles fetch is stalled on an Icache miss
system.cpu0.fetch.Insts                     214116946                       # Number of instructions fetch has processed
system.cpu0.fetch.Branches                   12410991                       # Number of branches that fetch encountered
system.cpu0.fetch.predictedBranches           8885725                       # Number of branches that fetch has predicted taken
system.cpu0.fetch.Cycles                    270927534                       # Number of cycles fetch has run and was not squashing or blocked
system.cpu0.fetch.SquashCycles                 319852                       # Number of cycles fetch has spent squashing
system.cpu0.fetch.MiscStallCycles                 709                       # Number of cycles fetch has spent waiting on interrupts, or bad addresses, or out of MSHRs
system.cpu0.fetch.PendingTrapStallCycles         1662                       # Number of stall cycles due to pending traps
system.cpu0.fetch.PendingQuiesceStallCycles            6                       # Number of stall cycles due to pending quiesce instructions
system.cpu0.fetch.IcacheWaitRetryStallCycles          174                       # Number of stall cycles due to full MSHR
system.cpu0.fetch.CacheLines                 21998801                       # Number of cache lines fetched
system.cpu0.fetch.IcacheSquashes                39423                       # Number of outstanding Icache misses that were squashed
system.cpu0.fetch.rateDist::samples         293254348                       # Number of instructions fetched each cycle (Total)
system.cpu0.fetch.rateDist::mean             1.025375                       # Number of instructions fetched each cycle (Total)
system.cpu0.fetch.rateDist::stdev            2.491383                       # Number of instructions fetched each cycle (Total)
system.cpu0.fetch.rateDist::underflows              0      0.00%      0.00% # Number of instructions fetched each cycle (Total)
system.cpu0.fetch.rateDist::0               243527318     83.04%     83.04% # Number of instructions fetched each cycle (Total)
system.cpu0.fetch.rateDist::1                 4562048      1.56%     84.60% # Number of instructions fetched each cycle (Total)
system.cpu0.fetch.rateDist::2                 2655615      0.91%     85.50% # Number of instructions fetched each cycle (Total)
system.cpu0.fetch.rateDist::3                 3657393      1.25%     86.75% # Number of instructions fetched each cycle (Total)
system.cpu0.fetch.rateDist::4                 2994935      1.02%     87.77% # Number of instructions fetched each cycle (Total)
system.cpu0.fetch.rateDist::5                 2764101      0.94%     88.72% # Number of instructions fetched each cycle (Total)
system.cpu0.fetch.rateDist::6                 2943269      1.00%     89.72% # Number of instructions fetched each cycle (Total)
system.cpu0.fetch.rateDist::7                 4807132      1.64%     91.36% # Number of instructions fetched each cycle (Total)
system.cpu0.fetch.rateDist::8                25342537      8.64%    100.00% # Number of instructions fetched each cycle (Total)
system.cpu0.fetch.rateDist::overflows               0      0.00%    100.00% # Number of instructions fetched each cycle (Total)
system.cpu0.fetch.rateDist::min_value               0                       # Number of instructions fetched each cycle (Total)
system.cpu0.fetch.rateDist::max_value               8                       # Number of instructions fetched each cycle (Total)
system.cpu0.fetch.rateDist::total           293254348                       # Number of instructions fetched each cycle (Total)
system.cpu0.fetch.branchRate                 0.042296                       # Number of branch fetches per cycle
system.cpu0.fetch.rate                       0.729698                       # Number of inst fetches per cycle
system.cpu0.decode.IdleCycles                13482279                       # Number of cycles decode is idle
system.cpu0.decode.BlockedCycles            238012290                       # Number of cycles decode is blocked
system.cpu0.decode.RunCycles                 29433204                       # Number of cycles decode is running
system.cpu0.decode.UnblockCycles             12166649                       # Number of cycles decode is unblocking
system.cpu0.decode.SquashCycles                159926                       # Number of cycles decode is squashing
system.cpu0.decode.DecodedInsts             299392128                       # Number of instructions handled by decode
system.cpu0.rename.SquashCycles                159926                       # Number of cycles rename is squashing
system.cpu0.rename.IdleCycles                18498686                       # Number of cycles rename is idle
system.cpu0.rename.BlockCycles              151817021                       # Number of cycles rename is blocking
system.cpu0.rename.serializeStallCycles          9159                       # count of cycles rename stalled for serializing inst
system.cpu0.rename.RunCycles                 36098724                       # Number of cycles rename is running
system.cpu0.rename.UnblockCycles             86670832                       # Number of cycles rename is unblocking
system.cpu0.rename.RenamedInsts             298569616                       # Number of instructions processed by rename
system.cpu0.rename.ROBFullEvents              4092962                       # Number of times rename has blocked due to ROB full
system.cpu0.rename.IQFullEvents              21430958                       # Number of times rename has blocked due to IQ full
system.cpu0.rename.LQFullEvents              24732039                       # Number of times rename has blocked due to LQ full
system.cpu0.rename.SQFullEvents              40623981                       # Number of times rename has blocked due to SQ full
system.cpu0.rename.RenamedOperands          349627200                       # Number of destination operands rename has renamed
system.cpu0.rename.RenameLookups            755071146                       # Number of register rename lookups that rename has made
system.cpu0.rename.int_rename_lookups       281374469                       # Number of integer rename lookups
system.cpu0.rename.fp_rename_lookups        314668429                       # Number of floating rename lookups
system.cpu0.rename.CommittedMaps            339262157                       # Number of HB maps that are committed
system.cpu0.rename.UndoneMaps                10364935                       # Number of HB maps that are undone due to squashing
system.cpu0.rename.serializingInsts               249                       # count of serializing insts renamed
system.cpu0.rename.tempSerializingInsts           255                       # count of temporary serializing insts renamed
system.cpu0.rename.skidInsts                 67713562                       # count of insts added to the skid buffer
system.cpu0.memDep0.insertedLoads            51961170                       # Number of loads inserted to the mem dependence unit.
system.cpu0.memDep0.insertedStores           15412378                       # Number of stores inserted to the mem dependence unit.
system.cpu0.memDep0.conflictingLoads          2003055                       # Number of conflicting loads.
system.cpu0.memDep0.conflictingStores         1593316                       # Number of conflicting stores.
system.cpu0.iq.iqInstsAdded                 297330728                       # Number of instructions added to the IQ (excludes non-spec)
system.cpu0.iq.iqNonSpecInstsAdded               2236                       # Number of non-speculative instructions added to the IQ
system.cpu0.iq.iqInstsIssued                298684048                       # Number of instructions issued
system.cpu0.iq.iqSquashedInstsIssued            21314                       # Number of squashed instructions issued
system.cpu0.iq.iqSquashedInstsExamined        7702023                       # Number of squashed instructions iterated over during squash; mainly for profiling
system.cpu0.iq.iqSquashedOperandsExamined      9776622                       # Number of squashed operands that are examined and possibly removed from graph
system.cpu0.iq.iqSquashedNonSpecRemoved          1862                       # Number of squashed non-spec instructions that were removed
system.cpu0.iq.issued_per_cycle::samples    293254348                       # Number of insts issued each cycle
system.cpu0.iq.issued_per_cycle::mean        1.018515                       # Number of insts issued each cycle
system.cpu0.iq.issued_per_cycle::stdev       1.940133                       # Number of insts issued each cycle
system.cpu0.iq.issued_per_cycle::underflows            0      0.00%      0.00% # Number of insts issued each cycle
system.cpu0.iq.issued_per_cycle::0          206343626     70.36%     70.36% # Number of insts issued each cycle
system.cpu0.iq.issued_per_cycle::1           18771023      6.40%     76.76% # Number of insts issued each cycle
system.cpu0.iq.issued_per_cycle::2           17116448      5.84%     82.60% # Number of insts issued each cycle
system.cpu0.iq.issued_per_cycle::3           14705371      5.01%     87.62% # Number of insts issued each cycle
system.cpu0.iq.issued_per_cycle::4           11370028      3.88%     91.49% # Number of insts issued each cycle
system.cpu0.iq.issued_per_cycle::5            7931808      2.70%     94.20% # Number of insts issued each cycle
system.cpu0.iq.issued_per_cycle::6            7391298      2.52%     96.72% # Number of insts issued each cycle
system.cpu0.iq.issued_per_cycle::7            4920892      1.68%     98.40% # Number of insts issued each cycle
system.cpu0.iq.issued_per_cycle::8            4703854      1.60%    100.00% # Number of insts issued each cycle
system.cpu0.iq.issued_per_cycle::overflows            0      0.00%    100.00% # Number of insts issued each cycle
system.cpu0.iq.issued_per_cycle::min_value            0                       # Number of insts issued each cycle
system.cpu0.iq.issued_per_cycle::max_value            8                       # Number of insts issued each cycle
system.cpu0.iq.issued_per_cycle::total      293254348                       # Number of insts issued each cycle
system.cpu0.iq.fu_full::No_OpClass                  0      0.00%      0.00% # attempts to use FU when none available
system.cpu0.iq.fu_full::IntAlu                 848612     22.39%     22.39% # attempts to use FU when none available
system.cpu0.iq.fu_full::IntMult                     0      0.00%     22.39% # attempts to use FU when none available
system.cpu0.iq.fu_full::IntDiv                      0      0.00%     22.39% # attempts to use FU when none available
system.cpu0.iq.fu_full::FloatAdd              1561092     41.18%     63.57% # attempts to use FU when none available
system.cpu0.iq.fu_full::FloatCmp                    0      0.00%     63.57% # attempts to use FU when none available
system.cpu0.iq.fu_full::FloatCvt                    0      0.00%     63.57% # attempts to use FU when none available
system.cpu0.iq.fu_full::FloatMult                   0      0.00%     63.57% # attempts to use FU when none available
system.cpu0.iq.fu_full::FloatMultAcc                0      0.00%     63.57% # attempts to use FU when none available
system.cpu0.iq.fu_full::FloatDiv                    0      0.00%     63.57% # attempts to use FU when none available
system.cpu0.iq.fu_full::FloatMisc                   0      0.00%     63.57% # attempts to use FU when none available
system.cpu0.iq.fu_full::FloatSqrt                   0      0.00%     63.57% # attempts to use FU when none available
system.cpu0.iq.fu_full::SimdAdd                     0      0.00%     63.57% # attempts to use FU when none available
system.cpu0.iq.fu_full::SimdAddAcc                  0      0.00%     63.57% # attempts to use FU when none available
system.cpu0.iq.fu_full::SimdAlu                     0      0.00%     63.57% # attempts to use FU when none available
system.cpu0.iq.fu_full::SimdCmp                     0      0.00%     63.57% # attempts to use FU when none available
system.cpu0.iq.fu_full::SimdCvt                     0      0.00%     63.57% # attempts to use FU when none available
system.cpu0.iq.fu_full::SimdMisc                    0      0.00%     63.57% # attempts to use FU when none available
system.cpu0.iq.fu_full::SimdMult                    0      0.00%     63.57% # attempts to use FU when none available
system.cpu0.iq.fu_full::SimdMultAcc                 0      0.00%     63.57% # attempts to use FU when none available
system.cpu0.iq.fu_full::SimdShift                   0      0.00%     63.57% # attempts to use FU when none available
system.cpu0.iq.fu_full::SimdShiftAcc                0      0.00%     63.57% # attempts to use FU when none available
system.cpu0.iq.fu_full::SimdSqrt                    0      0.00%     63.57% # attempts to use FU when none available
system.cpu0.iq.fu_full::SimdFloatAdd                0      0.00%     63.57% # attempts to use FU when none available
system.cpu0.iq.fu_full::SimdFloatAlu                0      0.00%     63.57% # attempts to use FU when none available
system.cpu0.iq.fu_full::SimdFloatCmp                0      0.00%     63.57% # attempts to use FU when none available
system.cpu0.iq.fu_full::SimdFloatCvt                0      0.00%     63.57% # attempts to use FU when none available
system.cpu0.iq.fu_full::SimdFloatDiv                0      0.00%     63.57% # attempts to use FU when none available
system.cpu0.iq.fu_full::SimdFloatMisc               0      0.00%     63.57% # attempts to use FU when none available
system.cpu0.iq.fu_full::SimdFloatMult               0      0.00%     63.57% # attempts to use FU when none available
system.cpu0.iq.fu_full::SimdFloatMultAcc            0      0.00%     63.57% # attempts to use FU when none available
system.cpu0.iq.fu_full::SimdFloatSqrt               0      0.00%     63.57% # attempts to use FU when none available
system.cpu0.iq.fu_full::MemRead                 65138      1.72%     65.29% # attempts to use FU when none available
system.cpu0.iq.fu_full::MemWrite                32261      0.85%     66.14% # attempts to use FU when none available
system.cpu0.iq.fu_full::FloatMemRead          1277062     33.69%     99.82% # attempts to use FU when none available
system.cpu0.iq.fu_full::FloatMemWrite            6655      0.18%    100.00% # attempts to use FU when none available
system.cpu0.iq.fu_full::IprAccess                   0      0.00%    100.00% # attempts to use FU when none available
system.cpu0.iq.fu_full::InstPrefetch                0      0.00%    100.00% # attempts to use FU when none available
system.cpu0.iq.FU_type_0::No_OpClass           228255      0.08%      0.08% # Type of FU issued
system.cpu0.iq.FU_type_0::IntAlu            147354541     49.33%     49.41% # Type of FU issued
system.cpu0.iq.FU_type_0::IntMult              315132      0.11%     49.52% # Type of FU issued
system.cpu0.iq.FU_type_0::IntDiv              1344418      0.45%     49.97% # Type of FU issued
system.cpu0.iq.FU_type_0::FloatAdd           78248573     26.20%     76.16% # Type of FU issued
system.cpu0.iq.FU_type_0::FloatCmp                  0      0.00%     76.16% # Type of FU issued
system.cpu0.iq.FU_type_0::FloatCvt                  0      0.00%     76.16% # Type of FU issued
system.cpu0.iq.FU_type_0::FloatMult                 0      0.00%     76.16% # Type of FU issued
system.cpu0.iq.FU_type_0::FloatMultAcc              0      0.00%     76.16% # Type of FU issued
system.cpu0.iq.FU_type_0::FloatDiv                  0      0.00%     76.16% # Type of FU issued
system.cpu0.iq.FU_type_0::FloatMisc                 0      0.00%     76.16% # Type of FU issued
system.cpu0.iq.FU_type_0::FloatSqrt                 0      0.00%     76.16% # Type of FU issued
system.cpu0.iq.FU_type_0::SimdAdd                   0      0.00%     76.16% # Type of FU issued
system.cpu0.iq.FU_type_0::SimdAddAcc                0      0.00%     76.16% # Type of FU issued
system.cpu0.iq.FU_type_0::SimdAlu                   0      0.00%     76.16% # Type of FU issued
system.cpu0.iq.FU_type_0::SimdCmp                   0      0.00%     76.16% # Type of FU issued
system.cpu0.iq.FU_type_0::SimdCvt                   0      0.00%     76.16% # Type of FU issued
system.cpu0.iq.FU_type_0::SimdMisc                  0      0.00%     76.16% # Type of FU issued
system.cpu0.iq.FU_type_0::SimdMult                  0      0.00%     76.16% # Type of FU issued
system.cpu0.iq.FU_type_0::SimdMultAcc               0      0.00%     76.16% # Type of FU issued
system.cpu0.iq.FU_type_0::SimdShift                 0      0.00%     76.16% # Type of FU issued
system.cpu0.iq.FU_type_0::SimdShiftAcc              0      0.00%     76.16% # Type of FU issued
system.cpu0.iq.FU_type_0::SimdSqrt                  0      0.00%     76.16% # Type of FU issued
system.cpu0.iq.FU_type_0::SimdFloatAdd              0      0.00%     76.16% # Type of FU issued
system.cpu0.iq.FU_type_0::SimdFloatAlu              0      0.00%     76.16% # Type of FU issued
system.cpu0.iq.FU_type_0::SimdFloatCmp              0      0.00%     76.16% # Type of FU issued
system.cpu0.iq.FU_type_0::SimdFloatCvt              0      0.00%     76.16% # Type of FU issued
system.cpu0.iq.FU_type_0::SimdFloatDiv              0      0.00%     76.16% # Type of FU issued
system.cpu0.iq.FU_type_0::SimdFloatMisc             0      0.00%     76.16% # Type of FU issued
system.cpu0.iq.FU_type_0::SimdFloatMult             0      0.00%     76.16% # Type of FU issued
system.cpu0.iq.FU_type_0::SimdFloatMultAcc            0      0.00%     76.16% # Type of FU issued
system.cpu0.iq.FU_type_0::SimdFloatSqrt             0      0.00%     76.16% # Type of FU issued
system.cpu0.iq.FU_type_0::MemRead             7679217      2.57%     78.74% # Type of FU issued
system.cpu0.iq.FU_type_0::MemWrite            3377462      1.13%     79.87% # Type of FU issued
system.cpu0.iq.FU_type_0::FloatMemRead       48255373     16.16%     96.02% # Type of FU issued
system.cpu0.iq.FU_type_0::FloatMemWrite      11881077      3.98%    100.00% # Type of FU issued
system.cpu0.iq.FU_type_0::IprAccess                 0      0.00%    100.00% # Type of FU issued
system.cpu0.iq.FU_type_0::InstPrefetch              0      0.00%    100.00% # Type of FU issued
system.cpu0.iq.FU_type_0::total             298684048                       # Type of FU issued
system.cpu0.iq.rate                          1.017897                       # Inst issue rate
system.cpu0.iq.fu_busy_cnt                    3790820                       # FU busy when requested
system.cpu0.iq.fu_busy_rate                  0.012692                       # FU busy rate (busy events/executed inst)
system.cpu0.iq.int_inst_queue_reads         547330197                       # Number of integer instruction queue reads
system.cpu0.iq.int_inst_queue_writes        132961048                       # Number of integer instruction queue writes
system.cpu0.iq.int_inst_queue_wakeup_accesses    126147800                       # Number of integer instruction queue wakeup accesses
system.cpu0.iq.fp_inst_queue_reads          347104381                       # Number of floating instruction queue reads
system.cpu0.iq.fp_inst_queue_writes         172075995                       # Number of floating instruction queue writes
system.cpu0.iq.fp_inst_queue_wakeup_accesses    167793918                       # Number of floating instruction queue wakeup accesses
system.cpu0.iq.vec_inst_queue_reads                 0                       # Number of vector instruction queue reads
system.cpu0.iq.vec_inst_queue_writes                0                       # Number of vector instruction queue writes
system.cpu0.iq.vec_inst_queue_wakeup_accesses            0                       # Number of vector instruction queue wakeup accesses
system.cpu0.iq.int_alu_accesses             127269098                       # Number of integer alu accesses
system.cpu0.iq.fp_alu_accesses              174977515                       # Number of floating point alu accesses
system.cpu0.iq.vec_alu_accesses                     0                       # Number of vector alu accesses
system.cpu0.iew.lsq.thread0.forwLoads         2272353                       # Number of loads that had data forwarded from stores
system.cpu0.iew.lsq.thread0.invAddrLoads            0                       # Number of loads ignored due to an invalid address
system.cpu0.iew.lsq.thread0.squashedLoads      1031494                       # Number of loads squashed
system.cpu0.iew.lsq.thread0.ignoredResponses         1465                       # Number of memory responses ignored because the instruction is squashed
system.cpu0.iew.lsq.thread0.memOrderViolation         2098                       # Number of memory ordering violations
system.cpu0.iew.lsq.thread0.squashedStores       392857                       # Number of stores squashed
system.cpu0.iew.lsq.thread0.invAddrSwpfs            0                       # Number of software prefetches ignored due to an invalid address
system.cpu0.iew.lsq.thread0.blockedLoads            0                       # Number of blocked loads due to partial load-store forwarding
system.cpu0.iew.lsq.thread0.rescheduledLoads          238                       # Number of loads that were rescheduled
system.cpu0.iew.lsq.thread0.cacheBlocked      4570834                       # Number of times an access to memory failed due to the cache being blocked
system.cpu0.iew.iewIdleCycles                       0                       # Number of cycles IEW is idle
system.cpu0.iew.iewSquashCycles                159926                       # Number of cycles IEW is squashing
system.cpu0.iew.iewBlockCycles              113568219                       # Number of cycles IEW is blocking
system.cpu0.iew.iewUnblockCycles             21232143                       # Number of cycles IEW is unblocking
system.cpu0.iew.iewDispatchedInsts          297332964                       # Number of instructions dispatched to IQ
system.cpu0.iew.iewDispSquashedInsts            11279                       # Number of squashed instructions skipped by dispatch
system.cpu0.iew.iewDispLoadInsts             51961170                       # Number of dispatched load instructions
system.cpu0.iew.iewDispStoreInsts            15412378                       # Number of dispatched store instructions
system.cpu0.iew.iewDispNonSpecInsts               905                       # Number of dispatched non-speculative instructions
system.cpu0.iew.iewIQFullEvents               1032577                       # Number of times the IQ has become full, causing a stall
system.cpu0.iew.iewLSQFullEvents             19495903                       # Number of times the LSQ has become full, causing a stall
system.cpu0.iew.memOrderViolationEvents          2098                       # Number of memory order violations
system.cpu0.iew.predictedTakenIncorrect         74257                       # Number of branches that were predicted taken incorrectly
system.cpu0.iew.predictedNotTakenIncorrect       106338                       # Number of branches that were predicted not taken incorrectly
system.cpu0.iew.branchMispredicts              180595                       # Number of branch mispredicts detected at execute
system.cpu0.iew.iewExecutedInsts            298347728                       # Number of executed instructions
system.cpu0.iew.iewExecLoadInsts             55889012                       # Number of load instructions executed
system.cpu0.iew.iewExecSquashedInsts           336320                       # Number of squashed instructions skipped in execute
system.cpu0.iew.exec_swp                            0                       # number of swp insts executed
system.cpu0.iew.exec_nop                            0                       # number of nop insts executed
system.cpu0.iew.exec_refs                    71117367                       # number of memory reference insts executed
system.cpu0.iew.exec_branches                11795247                       # Number of branches executed
system.cpu0.iew.exec_stores                  15228355                       # Number of stores executed
system.cpu0.iew.exec_rate                    1.016751                       # Inst execution rate
system.cpu0.iew.wb_sent                     294001017                       # cumulative count of insts sent to commit
system.cpu0.iew.wb_count                    293941718                       # cumulative count of insts written-back
system.cpu0.iew.wb_producers                225459386                       # num instructions producing a value
system.cpu0.iew.wb_consumers                392192539                       # num instructions consuming a value
system.cpu0.iew.wb_rate                      1.001736                       # insts written-back per cycle
system.cpu0.iew.wb_fanout                    0.574869                       # average fanout of values written-back
system.cpu0.commit.commitSquashedInsts        7702515                       # The number of squashed insts skipped by commit
system.cpu0.commit.commitNonSpecStalls            374                       # The number of times commit has been forced to stall to communicate backwards
system.cpu0.commit.branchMispredicts           158070                       # The number of times a branch was mispredicted
system.cpu0.commit.committed_per_cycle::samples    292194206                       # Number of insts commited each cycle
system.cpu0.commit.committed_per_cycle::mean     0.991227                       # Number of insts commited each cycle
system.cpu0.commit.committed_per_cycle::stdev     2.358748                       # Number of insts commited each cycle
system.cpu0.commit.committed_per_cycle::underflows            0      0.00%      0.00% # Number of insts commited each cycle
system.cpu0.commit.committed_per_cycle::0    233538152     79.93%     79.93% # Number of insts commited each cycle
system.cpu0.commit.committed_per_cycle::1     10231084      3.50%     83.43% # Number of insts commited each cycle
system.cpu0.commit.committed_per_cycle::2      8655845      2.96%     86.39% # Number of insts commited each cycle
system.cpu0.commit.committed_per_cycle::3      4863655      1.66%     88.05% # Number of insts commited each cycle
system.cpu0.commit.committed_per_cycle::4      4026687      1.38%     89.43% # Number of insts commited each cycle
system.cpu0.commit.committed_per_cycle::5      1858374      0.64%     90.07% # Number of insts commited each cycle
system.cpu0.commit.committed_per_cycle::6      3460564      1.18%     91.25% # Number of insts commited each cycle
system.cpu0.commit.committed_per_cycle::7      3143660      1.08%     92.33% # Number of insts commited each cycle
system.cpu0.commit.committed_per_cycle::8     22416185      7.67%    100.00% # Number of insts commited each cycle
system.cpu0.commit.committed_per_cycle::overflows            0      0.00%    100.00% # Number of insts commited each cycle
system.cpu0.commit.committed_per_cycle::min_value            0                       # Number of insts commited each cycle
system.cpu0.commit.committed_per_cycle::max_value            8                       # Number of insts commited each cycle
system.cpu0.commit.committed_per_cycle::total    292194206                       # Number of insts commited each cycle
system.cpu0.commit.committedInsts           207663301                       # Number of instructions committed
system.cpu0.commit.committedOps             289630841                       # Number of ops (including micro ops) committed
system.cpu0.commit.swp_count                        0                       # Number of s/w prefetches committed
system.cpu0.commit.refs                      65949173                       # Number of memory references committed
system.cpu0.commit.loads                     50929654                       # Number of loads committed
system.cpu0.commit.membars                        196                       # Number of memory barriers committed
system.cpu0.commit.branches                  11577539                       # Number of branches committed
system.cpu0.commit.vec_insts                        0                       # Number of committed Vector instructions.
system.cpu0.commit.fp_insts                 166605388                       # Number of committed floating point instructions.
system.cpu0.commit.int_insts                178693763                       # Number of committed integer instructions.
system.cpu0.commit.function_calls              955862                       # Number of function calls committed.
system.cpu0.commit.op_class_0::No_OpClass       204933      0.07%      0.07% # Class of committed instruction
system.cpu0.commit.op_class_0::IntAlu       144086270     49.75%     49.82% # Class of committed instruction
system.cpu0.commit.op_class_0::IntMult         305103      0.11%     49.92% # Class of committed instruction
system.cpu0.commit.op_class_0::IntDiv         1344329      0.46%     50.39% # Class of committed instruction
system.cpu0.commit.op_class_0::FloatAdd      77741033     26.84%     77.23% # Class of committed instruction
system.cpu0.commit.op_class_0::FloatCmp             0      0.00%     77.23% # Class of committed instruction
system.cpu0.commit.op_class_0::FloatCvt             0      0.00%     77.23% # Class of committed instruction
system.cpu0.commit.op_class_0::FloatMult            0      0.00%     77.23% # Class of committed instruction
system.cpu0.commit.op_class_0::FloatMultAcc            0      0.00%     77.23% # Class of committed instruction
system.cpu0.commit.op_class_0::FloatDiv             0      0.00%     77.23% # Class of committed instruction
system.cpu0.commit.op_class_0::FloatMisc            0      0.00%     77.23% # Class of committed instruction
system.cpu0.commit.op_class_0::FloatSqrt            0      0.00%     77.23% # Class of committed instruction
system.cpu0.commit.op_class_0::SimdAdd              0      0.00%     77.23% # Class of committed instruction
system.cpu0.commit.op_class_0::SimdAddAcc            0      0.00%     77.23% # Class of committed instruction
system.cpu0.commit.op_class_0::SimdAlu              0      0.00%     77.23% # Class of committed instruction
system.cpu0.commit.op_class_0::SimdCmp              0      0.00%     77.23% # Class of committed instruction
system.cpu0.commit.op_class_0::SimdCvt              0      0.00%     77.23% # Class of committed instruction
system.cpu0.commit.op_class_0::SimdMisc             0      0.00%     77.23% # Class of committed instruction
system.cpu0.commit.op_class_0::SimdMult             0      0.00%     77.23% # Class of committed instruction
system.cpu0.commit.op_class_0::SimdMultAcc            0      0.00%     77.23% # Class of committed instruction
system.cpu0.commit.op_class_0::SimdShift            0      0.00%     77.23% # Class of committed instruction
system.cpu0.commit.op_class_0::SimdShiftAcc            0      0.00%     77.23% # Class of committed instruction
system.cpu0.commit.op_class_0::SimdSqrt             0      0.00%     77.23% # Class of committed instruction
system.cpu0.commit.op_class_0::SimdFloatAdd            0      0.00%     77.23% # Class of committed instruction
system.cpu0.commit.op_class_0::SimdFloatAlu            0      0.00%     77.23% # Class of committed instruction
system.cpu0.commit.op_class_0::SimdFloatCmp            0      0.00%     77.23% # Class of committed instruction
system.cpu0.commit.op_class_0::SimdFloatCvt            0      0.00%     77.23% # Class of committed instruction
system.cpu0.commit.op_class_0::SimdFloatDiv            0      0.00%     77.23% # Class of committed instruction
system.cpu0.commit.op_class_0::SimdFloatMisc            0      0.00%     77.23% # Class of committed instruction
system.cpu0.commit.op_class_0::SimdFloatMult            0      0.00%     77.23% # Class of committed instruction
system.cpu0.commit.op_class_0::SimdFloatMultAcc            0      0.00%     77.23% # Class of committed instruction
system.cpu0.commit.op_class_0::SimdFloatSqrt            0      0.00%     77.23% # Class of committed instruction
system.cpu0.commit.op_class_0::MemRead        7263321      2.51%     79.74% # Class of committed instruction
system.cpu0.commit.op_class_0::MemWrite       3166903      1.09%     80.83% # Class of committed instruction
system.cpu0.commit.op_class_0::FloatMemRead     43666333     15.08%     95.91% # Class of committed instruction
system.cpu0.commit.op_class_0::FloatMemWrite     11852616      4.09%    100.00% # Class of committed instruction
system.cpu0.commit.op_class_0::IprAccess            0      0.00%    100.00% # Class of committed instruction
system.cpu0.commit.op_class_0::InstPrefetch            0      0.00%    100.00% # Class of committed instruction
system.cpu0.commit.op_class_0::total        289630841                       # Class of committed instruction
system.cpu0.commit.bw_lim_events             22416185                       # number cycles where commit BW limit reached
system.cpu0.rob.rob_reads                   567111377                       # The number of ROB reads
system.cpu0.rob.rob_writes                  595732453                       # The number of ROB writes
system.cpu0.timesIdled                           1189                       # Number of times that the entire CPU went into an idle state and unscheduled itself
system.cpu0.idleCycles                         178013                       # Total number of cycles that the CPU has spent unscheduled due to idling
system.cpu0.committedInsts                  207663301                       # Number of Instructions Simulated
system.cpu0.committedOps                    289630841                       # Number of Ops (including micro ops) Simulated
system.cpu0.cpi                              1.413020                       # CPI: Cycles Per Instruction
system.cpu0.cpi_total                        1.413020                       # CPI: Total CPI of All Threads
system.cpu0.ipc                              0.707704                       # IPC: Instructions Per Cycle
system.cpu0.ipc_total                        0.707704                       # IPC: Total IPC of All Threads
system.cpu0.int_regfile_reads               284715525                       # number of integer regfile reads
system.cpu0.int_regfile_writes              114199162                       # number of integer regfile writes
system.cpu0.fp_regfile_reads                310890343                       # number of floating regfile reads
system.cpu0.fp_regfile_writes               155363161                       # number of floating regfile writes
system.cpu0.cc_regfile_reads                 63117818                       # number of cc regfile reads
system.cpu0.cc_regfile_writes                74518640                       # number of cc regfile writes
system.cpu0.misc_regfile_reads               96413191                       # number of misc regfile reads
system.cpu0.dcache.tags.pwrStateResidencyTicks::UNDEFINED  97712975880                       # Cumulative time (in ticks) in various power states
system.cpu0.dcache.tags.replacements          2740681                       # number of replacements
system.cpu0.dcache.tags.tagsinuse          511.819368                       # Cycle average of tags in use
system.cpu0.dcache.tags.total_refs           53272655                       # Total number of references to valid blocks.
system.cpu0.dcache.tags.sampled_refs          2741193                       # Sample count of references to valid blocks.
system.cpu0.dcache.tags.avg_refs            19.434113                       # Average number of references to valid blocks.
system.cpu0.dcache.tags.warmup_cycle           150183                       # Cycle when the warmup percentage was hit.
system.cpu0.dcache.tags.occ_blocks::cpu0.data   511.819368                       # Average occupied blocks per requestor
system.cpu0.dcache.tags.occ_percent::cpu0.data     0.999647                       # Average percentage of cache occupancy
system.cpu0.dcache.tags.occ_percent::total     0.999647                       # Average percentage of cache occupancy
system.cpu0.dcache.tags.occ_task_id_blocks::1024          512                       # Occupied blocks per task id
system.cpu0.dcache.tags.age_task_id_blocks_1024::0          155                       # Occupied blocks per task id
system.cpu0.dcache.tags.age_task_id_blocks_1024::1          351                       # Occupied blocks per task id
system.cpu0.dcache.tags.age_task_id_blocks_1024::2            6                       # Occupied blocks per task id
system.cpu0.dcache.tags.occ_task_id_percent::1024            1                       # Percentage of cache occupancy per task id
system.cpu0.dcache.tags.tag_accesses        517591633                       # Number of tag accesses
system.cpu0.dcache.tags.data_accesses       517591633                       # Number of data accesses
system.cpu0.dcache.pwrStateResidencyTicks::UNDEFINED  97712975880                       # Cumulative time (in ticks) in various power states
system.cpu0.dcache.ReadReq_hits::cpu0.data     38857882                       # number of ReadReq hits
system.cpu0.dcache.ReadReq_hits::total       38857882                       # number of ReadReq hits
system.cpu0.dcache.WriteReq_hits::cpu0.data     14170966                       # number of WriteReq hits
system.cpu0.dcache.WriteReq_hits::total      14170966                       # number of WriteReq hits
system.cpu0.dcache.demand_hits::cpu0.data     53028848                       # number of demand (read+write) hits
system.cpu0.dcache.demand_hits::total        53028848                       # number of demand (read+write) hits
system.cpu0.dcache.overall_hits::cpu0.data     53028848                       # number of overall hits
system.cpu0.dcache.overall_hits::total       53028848                       # number of overall hits
system.cpu0.dcache.ReadReq_misses::cpu0.data     10478887                       # number of ReadReq misses
system.cpu0.dcache.ReadReq_misses::total     10478887                       # number of ReadReq misses
system.cpu0.dcache.WriteReq_misses::cpu0.data       848570                       # number of WriteReq misses
system.cpu0.dcache.WriteReq_misses::total       848570                       # number of WriteReq misses
system.cpu0.dcache.demand_misses::cpu0.data     11327457                       # number of demand (read+write) misses
system.cpu0.dcache.demand_misses::total      11327457                       # number of demand (read+write) misses
system.cpu0.dcache.overall_misses::cpu0.data     11327457                       # number of overall misses
system.cpu0.dcache.overall_misses::total     11327457                       # number of overall misses
system.cpu0.dcache.ReadReq_miss_latency::cpu0.data 573195280617                       # number of ReadReq miss cycles
system.cpu0.dcache.ReadReq_miss_latency::total 573195280617                       # number of ReadReq miss cycles
system.cpu0.dcache.WriteReq_miss_latency::cpu0.data  31798980914                       # number of WriteReq miss cycles
system.cpu0.dcache.WriteReq_miss_latency::total  31798980914                       # number of WriteReq miss cycles
system.cpu0.dcache.demand_miss_latency::cpu0.data 604994261531                       # number of demand (read+write) miss cycles
system.cpu0.dcache.demand_miss_latency::total 604994261531                       # number of demand (read+write) miss cycles
system.cpu0.dcache.overall_miss_latency::cpu0.data 604994261531                       # number of overall miss cycles
system.cpu0.dcache.overall_miss_latency::total 604994261531                       # number of overall miss cycles
system.cpu0.dcache.ReadReq_accesses::cpu0.data     49336769                       # number of ReadReq accesses(hits+misses)
system.cpu0.dcache.ReadReq_accesses::total     49336769                       # number of ReadReq accesses(hits+misses)
system.cpu0.dcache.WriteReq_accesses::cpu0.data     15019536                       # number of WriteReq accesses(hits+misses)
system.cpu0.dcache.WriteReq_accesses::total     15019536                       # number of WriteReq accesses(hits+misses)
system.cpu0.dcache.demand_accesses::cpu0.data     64356305                       # number of demand (read+write) accesses
system.cpu0.dcache.demand_accesses::total     64356305                       # number of demand (read+write) accesses
system.cpu0.dcache.overall_accesses::cpu0.data     64356305                       # number of overall (read+write) accesses
system.cpu0.dcache.overall_accesses::total     64356305                       # number of overall (read+write) accesses
system.cpu0.dcache.ReadReq_miss_rate::cpu0.data     0.212395                       # miss rate for ReadReq accesses
system.cpu0.dcache.ReadReq_miss_rate::total     0.212395                       # miss rate for ReadReq accesses
system.cpu0.dcache.WriteReq_miss_rate::cpu0.data     0.056498                       # miss rate for WriteReq accesses
system.cpu0.dcache.WriteReq_miss_rate::total     0.056498                       # miss rate for WriteReq accesses
system.cpu0.dcache.demand_miss_rate::cpu0.data     0.176012                       # miss rate for demand accesses
system.cpu0.dcache.demand_miss_rate::total     0.176012                       # miss rate for demand accesses
system.cpu0.dcache.overall_miss_rate::cpu0.data     0.176012                       # miss rate for overall accesses
system.cpu0.dcache.overall_miss_rate::total     0.176012                       # miss rate for overall accesses
system.cpu0.dcache.ReadReq_avg_miss_latency::cpu0.data 54700.015433                       # average ReadReq miss latency
system.cpu0.dcache.ReadReq_avg_miss_latency::total 54700.015433                       # average ReadReq miss latency
system.cpu0.dcache.WriteReq_avg_miss_latency::cpu0.data 37473.609619                       # average WriteReq miss latency
system.cpu0.dcache.WriteReq_avg_miss_latency::total 37473.609619                       # average WriteReq miss latency
system.cpu0.dcache.demand_avg_miss_latency::cpu0.data 53409.539452                       # average overall miss latency
system.cpu0.dcache.demand_avg_miss_latency::total 53409.539452                       # average overall miss latency
system.cpu0.dcache.overall_avg_miss_latency::cpu0.data 53409.539452                       # average overall miss latency
system.cpu0.dcache.overall_avg_miss_latency::total 53409.539452                       # average overall miss latency
system.cpu0.dcache.blocked_cycles::no_mshrs     35833048                       # number of cycles access was blocked
system.cpu0.dcache.blocked_cycles::no_targets           11                       # number of cycles access was blocked
system.cpu0.dcache.blocked::no_mshrs           671902                       # number of cycles access was blocked
system.cpu0.dcache.blocked::no_targets              1                       # number of cycles access was blocked
system.cpu0.dcache.avg_blocked_cycles::no_mshrs    53.330765                       # average number of cycles each access was blocked
system.cpu0.dcache.avg_blocked_cycles::no_targets           11                       # average number of cycles each access was blocked
system.cpu0.dcache.writebacks::writebacks      1129337                       # number of writebacks
system.cpu0.dcache.writebacks::total          1129337                       # number of writebacks
system.cpu0.dcache.ReadReq_mshr_hits::cpu0.data      8353547                       # number of ReadReq MSHR hits
system.cpu0.dcache.ReadReq_mshr_hits::total      8353547                       # number of ReadReq MSHR hits
system.cpu0.dcache.WriteReq_mshr_hits::cpu0.data          292                       # number of WriteReq MSHR hits
system.cpu0.dcache.WriteReq_mshr_hits::total          292                       # number of WriteReq MSHR hits
system.cpu0.dcache.demand_mshr_hits::cpu0.data      8353839                       # number of demand (read+write) MSHR hits
system.cpu0.dcache.demand_mshr_hits::total      8353839                       # number of demand (read+write) MSHR hits
system.cpu0.dcache.overall_mshr_hits::cpu0.data      8353839                       # number of overall MSHR hits
system.cpu0.dcache.overall_mshr_hits::total      8353839                       # number of overall MSHR hits
system.cpu0.dcache.ReadReq_mshr_misses::cpu0.data      2125340                       # number of ReadReq MSHR misses
system.cpu0.dcache.ReadReq_mshr_misses::total      2125340                       # number of ReadReq MSHR misses
system.cpu0.dcache.WriteReq_mshr_misses::cpu0.data       848278                       # number of WriteReq MSHR misses
system.cpu0.dcache.WriteReq_mshr_misses::total       848278                       # number of WriteReq MSHR misses
system.cpu0.dcache.demand_mshr_misses::cpu0.data      2973618                       # number of demand (read+write) MSHR misses
system.cpu0.dcache.demand_mshr_misses::total      2973618                       # number of demand (read+write) MSHR misses
system.cpu0.dcache.overall_mshr_misses::cpu0.data      2973618                       # number of overall MSHR misses
system.cpu0.dcache.overall_mshr_misses::total      2973618                       # number of overall MSHR misses
system.cpu0.dcache.ReadReq_mshr_miss_latency::cpu0.data 138875392926                       # number of ReadReq MSHR miss cycles
system.cpu0.dcache.ReadReq_mshr_miss_latency::total 138875392926                       # number of ReadReq MSHR miss cycles
system.cpu0.dcache.WriteReq_mshr_miss_latency::cpu0.data  31226286849                       # number of WriteReq MSHR miss cycles
system.cpu0.dcache.WriteReq_mshr_miss_latency::total  31226286849                       # number of WriteReq MSHR miss cycles
system.cpu0.dcache.demand_mshr_miss_latency::cpu0.data 170101679775                       # number of demand (read+write) MSHR miss cycles
system.cpu0.dcache.demand_mshr_miss_latency::total 170101679775                       # number of demand (read+write) MSHR miss cycles
system.cpu0.dcache.overall_mshr_miss_latency::cpu0.data 170101679775                       # number of overall MSHR miss cycles
system.cpu0.dcache.overall_mshr_miss_latency::total 170101679775                       # number of overall MSHR miss cycles
system.cpu0.dcache.ReadReq_mshr_miss_rate::cpu0.data     0.043078                       # mshr miss rate for ReadReq accesses
system.cpu0.dcache.ReadReq_mshr_miss_rate::total     0.043078                       # mshr miss rate for ReadReq accesses
system.cpu0.dcache.WriteReq_mshr_miss_rate::cpu0.data     0.056478                       # mshr miss rate for WriteReq accesses
system.cpu0.dcache.WriteReq_mshr_miss_rate::total     0.056478                       # mshr miss rate for WriteReq accesses
system.cpu0.dcache.demand_mshr_miss_rate::cpu0.data     0.046206                       # mshr miss rate for demand accesses
system.cpu0.dcache.demand_mshr_miss_rate::total     0.046206                       # mshr miss rate for demand accesses
system.cpu0.dcache.overall_mshr_miss_rate::cpu0.data     0.046206                       # mshr miss rate for overall accesses
system.cpu0.dcache.overall_mshr_miss_rate::total     0.046206                       # mshr miss rate for overall accesses
system.cpu0.dcache.ReadReq_avg_mshr_miss_latency::cpu0.data 65342.671255                       # average ReadReq mshr miss latency
system.cpu0.dcache.ReadReq_avg_mshr_miss_latency::total 65342.671255                       # average ReadReq mshr miss latency
system.cpu0.dcache.WriteReq_avg_mshr_miss_latency::cpu0.data 36811.383590                       # average WriteReq mshr miss latency
system.cpu0.dcache.WriteReq_avg_mshr_miss_latency::total 36811.383590                       # average WriteReq mshr miss latency
system.cpu0.dcache.demand_avg_mshr_miss_latency::cpu0.data 57203.608458                       # average overall mshr miss latency
system.cpu0.dcache.demand_avg_mshr_miss_latency::total 57203.608458                       # average overall mshr miss latency
system.cpu0.dcache.overall_avg_mshr_miss_latency::cpu0.data 57203.608458                       # average overall mshr miss latency
system.cpu0.dcache.overall_avg_mshr_miss_latency::total 57203.608458                       # average overall mshr miss latency
system.cpu0.dtb_walker_cache.tags.pwrStateResidencyTicks::UNDEFINED  97712975880                       # Cumulative time (in ticks) in various power states
system.cpu0.dtb_walker_cache.tags.replacements            0                       # number of replacements
system.cpu0.dtb_walker_cache.tags.tagsinuse            0                       # Cycle average of tags in use
system.cpu0.dtb_walker_cache.tags.total_refs            0                       # Total number of references to valid blocks.
system.cpu0.dtb_walker_cache.tags.sampled_refs            0                       # Sample count of references to valid blocks.
system.cpu0.dtb_walker_cache.tags.avg_refs          nan                       # Average number of references to valid blocks.
system.cpu0.dtb_walker_cache.tags.warmup_cycle            0                       # Cycle when the warmup percentage was hit.
system.cpu0.dtb_walker_cache.tags.tag_accesses            0                       # Number of tag accesses
system.cpu0.dtb_walker_cache.tags.data_accesses            0                       # Number of data accesses
system.cpu0.dtb_walker_cache.pwrStateResidencyTicks::UNDEFINED  97712975880                       # Cumulative time (in ticks) in various power states
system.cpu0.dtb_walker_cache.blocked_cycles::no_mshrs            0                       # number of cycles access was blocked
system.cpu0.dtb_walker_cache.blocked_cycles::no_targets            0                       # number of cycles access was blocked
system.cpu0.dtb_walker_cache.blocked::no_mshrs            0                       # number of cycles access was blocked
system.cpu0.dtb_walker_cache.blocked::no_targets            0                       # number of cycles access was blocked
system.cpu0.dtb_walker_cache.avg_blocked_cycles::no_mshrs          nan                       # average number of cycles each access was blocked
system.cpu0.dtb_walker_cache.avg_blocked_cycles::no_targets          nan                       # average number of cycles each access was blocked
system.cpu0.icache.tags.pwrStateResidencyTicks::UNDEFINED  97712975880                       # Cumulative time (in ticks) in various power states
system.cpu0.icache.tags.replacements             2553                       # number of replacements
system.cpu0.icache.tags.tagsinuse          511.915928                       # Cycle average of tags in use
system.cpu0.icache.tags.total_refs           21995062                       # Total number of references to valid blocks.
system.cpu0.icache.tags.sampled_refs             3065                       # Sample count of references to valid blocks.
system.cpu0.icache.tags.avg_refs          7176.202936                       # Average number of references to valid blocks.
system.cpu0.icache.tags.warmup_cycle            76257                       # Cycle when the warmup percentage was hit.
system.cpu0.icache.tags.occ_blocks::cpu0.inst   511.915928                       # Average occupied blocks per requestor
system.cpu0.icache.tags.occ_percent::cpu0.inst     0.999836                       # Average percentage of cache occupancy
system.cpu0.icache.tags.occ_percent::total     0.999836                       # Average percentage of cache occupancy
system.cpu0.icache.tags.occ_task_id_blocks::1024          512                       # Occupied blocks per task id
system.cpu0.icache.tags.age_task_id_blocks_1024::3            1                       # Occupied blocks per task id
system.cpu0.icache.tags.age_task_id_blocks_1024::4          511                       # Occupied blocks per task id
system.cpu0.icache.tags.occ_task_id_percent::1024            1                       # Percentage of cache occupancy per task id
system.cpu0.icache.tags.tag_accesses        175993449                       # Number of tag accesses
system.cpu0.icache.tags.data_accesses       175993449                       # Number of data accesses
system.cpu0.icache.pwrStateResidencyTicks::UNDEFINED  97712975880                       # Cumulative time (in ticks) in various power states
system.cpu0.icache.ReadReq_hits::cpu0.inst     21995062                       # number of ReadReq hits
system.cpu0.icache.ReadReq_hits::total       21995062                       # number of ReadReq hits
system.cpu0.icache.demand_hits::cpu0.inst     21995062                       # number of demand (read+write) hits
system.cpu0.icache.demand_hits::total        21995062                       # number of demand (read+write) hits
system.cpu0.icache.overall_hits::cpu0.inst     21995062                       # number of overall hits
system.cpu0.icache.overall_hits::total       21995062                       # number of overall hits
system.cpu0.icache.ReadReq_misses::cpu0.inst         3736                       # number of ReadReq misses
system.cpu0.icache.ReadReq_misses::total         3736                       # number of ReadReq misses
system.cpu0.icache.demand_misses::cpu0.inst         3736                       # number of demand (read+write) misses
system.cpu0.icache.demand_misses::total          3736                       # number of demand (read+write) misses
system.cpu0.icache.overall_misses::cpu0.inst         3736                       # number of overall misses
system.cpu0.icache.overall_misses::total         3736                       # number of overall misses
system.cpu0.icache.ReadReq_miss_latency::cpu0.inst    188701773                       # number of ReadReq miss cycles
system.cpu0.icache.ReadReq_miss_latency::total    188701773                       # number of ReadReq miss cycles
system.cpu0.icache.demand_miss_latency::cpu0.inst    188701773                       # number of demand (read+write) miss cycles
system.cpu0.icache.demand_miss_latency::total    188701773                       # number of demand (read+write) miss cycles
system.cpu0.icache.overall_miss_latency::cpu0.inst    188701773                       # number of overall miss cycles
system.cpu0.icache.overall_miss_latency::total    188701773                       # number of overall miss cycles
system.cpu0.icache.ReadReq_accesses::cpu0.inst     21998798                       # number of ReadReq accesses(hits+misses)
system.cpu0.icache.ReadReq_accesses::total     21998798                       # number of ReadReq accesses(hits+misses)
system.cpu0.icache.demand_accesses::cpu0.inst     21998798                       # number of demand (read+write) accesses
system.cpu0.icache.demand_accesses::total     21998798                       # number of demand (read+write) accesses
system.cpu0.icache.overall_accesses::cpu0.inst     21998798                       # number of overall (read+write) accesses
system.cpu0.icache.overall_accesses::total     21998798                       # number of overall (read+write) accesses
system.cpu0.icache.ReadReq_miss_rate::cpu0.inst     0.000170                       # miss rate for ReadReq accesses
system.cpu0.icache.ReadReq_miss_rate::total     0.000170                       # miss rate for ReadReq accesses
system.cpu0.icache.demand_miss_rate::cpu0.inst     0.000170                       # miss rate for demand accesses
system.cpu0.icache.demand_miss_rate::total     0.000170                       # miss rate for demand accesses
system.cpu0.icache.overall_miss_rate::cpu0.inst     0.000170                       # miss rate for overall accesses
system.cpu0.icache.overall_miss_rate::total     0.000170                       # miss rate for overall accesses
system.cpu0.icache.ReadReq_avg_miss_latency::cpu0.inst 50509.039882                       # average ReadReq miss latency
system.cpu0.icache.ReadReq_avg_miss_latency::total 50509.039882                       # average ReadReq miss latency
system.cpu0.icache.demand_avg_miss_latency::cpu0.inst 50509.039882                       # average overall miss latency
system.cpu0.icache.demand_avg_miss_latency::total 50509.039882                       # average overall miss latency
system.cpu0.icache.overall_avg_miss_latency::cpu0.inst 50509.039882                       # average overall miss latency
system.cpu0.icache.overall_avg_miss_latency::total 50509.039882                       # average overall miss latency
system.cpu0.icache.blocked_cycles::no_mshrs         3298                       # number of cycles access was blocked
system.cpu0.icache.blocked_cycles::no_targets            0                       # number of cycles access was blocked
system.cpu0.icache.blocked::no_mshrs               39                       # number of cycles access was blocked
system.cpu0.icache.blocked::no_targets              0                       # number of cycles access was blocked
system.cpu0.icache.avg_blocked_cycles::no_mshrs    84.564103                       # average number of cycles each access was blocked
system.cpu0.icache.avg_blocked_cycles::no_targets          nan                       # average number of cycles each access was blocked
system.cpu0.icache.writebacks::writebacks         2553                       # number of writebacks
system.cpu0.icache.writebacks::total             2553                       # number of writebacks
system.cpu0.icache.ReadReq_mshr_hits::cpu0.inst          671                       # number of ReadReq MSHR hits
system.cpu0.icache.ReadReq_mshr_hits::total          671                       # number of ReadReq MSHR hits
system.cpu0.icache.demand_mshr_hits::cpu0.inst          671                       # number of demand (read+write) MSHR hits
system.cpu0.icache.demand_mshr_hits::total          671                       # number of demand (read+write) MSHR hits
system.cpu0.icache.overall_mshr_hits::cpu0.inst          671                       # number of overall MSHR hits
system.cpu0.icache.overall_mshr_hits::total          671                       # number of overall MSHR hits
system.cpu0.icache.ReadReq_mshr_misses::cpu0.inst         3065                       # number of ReadReq MSHR misses
system.cpu0.icache.ReadReq_mshr_misses::total         3065                       # number of ReadReq MSHR misses
system.cpu0.icache.demand_mshr_misses::cpu0.inst         3065                       # number of demand (read+write) MSHR misses
system.cpu0.icache.demand_mshr_misses::total         3065                       # number of demand (read+write) MSHR misses
system.cpu0.icache.overall_mshr_misses::cpu0.inst         3065                       # number of overall MSHR misses
system.cpu0.icache.overall_mshr_misses::total         3065                       # number of overall MSHR misses
system.cpu0.icache.ReadReq_mshr_miss_latency::cpu0.inst    151417096                       # number of ReadReq MSHR miss cycles
system.cpu0.icache.ReadReq_mshr_miss_latency::total    151417096                       # number of ReadReq MSHR miss cycles
system.cpu0.icache.demand_mshr_miss_latency::cpu0.inst    151417096                       # number of demand (read+write) MSHR miss cycles
system.cpu0.icache.demand_mshr_miss_latency::total    151417096                       # number of demand (read+write) MSHR miss cycles
system.cpu0.icache.overall_mshr_miss_latency::cpu0.inst    151417096                       # number of overall MSHR miss cycles
system.cpu0.icache.overall_mshr_miss_latency::total    151417096                       # number of overall MSHR miss cycles
system.cpu0.icache.ReadReq_mshr_miss_rate::cpu0.inst     0.000139                       # mshr miss rate for ReadReq accesses
system.cpu0.icache.ReadReq_mshr_miss_rate::total     0.000139                       # mshr miss rate for ReadReq accesses
system.cpu0.icache.demand_mshr_miss_rate::cpu0.inst     0.000139                       # mshr miss rate for demand accesses
system.cpu0.icache.demand_mshr_miss_rate::total     0.000139                       # mshr miss rate for demand accesses
system.cpu0.icache.overall_mshr_miss_rate::cpu0.inst     0.000139                       # mshr miss rate for overall accesses
system.cpu0.icache.overall_mshr_miss_rate::total     0.000139                       # mshr miss rate for overall accesses
system.cpu0.icache.ReadReq_avg_mshr_miss_latency::cpu0.inst 49401.988907                       # average ReadReq mshr miss latency
system.cpu0.icache.ReadReq_avg_mshr_miss_latency::total 49401.988907                       # average ReadReq mshr miss latency
system.cpu0.icache.demand_avg_mshr_miss_latency::cpu0.inst 49401.988907                       # average overall mshr miss latency
system.cpu0.icache.demand_avg_mshr_miss_latency::total 49401.988907                       # average overall mshr miss latency
system.cpu0.icache.overall_avg_mshr_miss_latency::cpu0.inst 49401.988907                       # average overall mshr miss latency
system.cpu0.icache.overall_avg_mshr_miss_latency::total 49401.988907                       # average overall mshr miss latency
system.cpu0.itb_walker_cache.tags.pwrStateResidencyTicks::UNDEFINED  97712975880                       # Cumulative time (in ticks) in various power states
system.cpu0.itb_walker_cache.tags.replacements            0                       # number of replacements
system.cpu0.itb_walker_cache.tags.tagsinuse            0                       # Cycle average of tags in use
system.cpu0.itb_walker_cache.tags.total_refs            0                       # Total number of references to valid blocks.
system.cpu0.itb_walker_cache.tags.sampled_refs            0                       # Sample count of references to valid blocks.
system.cpu0.itb_walker_cache.tags.avg_refs          nan                       # Average number of references to valid blocks.
system.cpu0.itb_walker_cache.tags.warmup_cycle            0                       # Cycle when the warmup percentage was hit.
system.cpu0.itb_walker_cache.tags.tag_accesses            0                       # Number of tag accesses
system.cpu0.itb_walker_cache.tags.data_accesses            0                       # Number of data accesses
system.cpu0.itb_walker_cache.pwrStateResidencyTicks::UNDEFINED  97712975880                       # Cumulative time (in ticks) in various power states
system.cpu0.itb_walker_cache.blocked_cycles::no_mshrs            0                       # number of cycles access was blocked
system.cpu0.itb_walker_cache.blocked_cycles::no_targets            0                       # number of cycles access was blocked
system.cpu0.itb_walker_cache.blocked::no_mshrs            0                       # number of cycles access was blocked
system.cpu0.itb_walker_cache.blocked::no_targets            0                       # number of cycles access was blocked
system.cpu0.itb_walker_cache.avg_blocked_cycles::no_mshrs          nan                       # average number of cycles each access was blocked
system.cpu0.itb_walker_cache.avg_blocked_cycles::no_targets          nan                       # average number of cycles each access was blocked
system.cpu0.l2cache.tags.pwrStateResidencyTicks::UNDEFINED  97712975880                       # Cumulative time (in ticks) in various power states
system.cpu0.l2cache.tags.replacements         2578760                       # number of replacements
system.cpu0.l2cache.tags.tagsinuse        4090.669045                       # Cycle average of tags in use
system.cpu0.l2cache.tags.total_refs           3136732                       # Total number of references to valid blocks.
system.cpu0.l2cache.tags.sampled_refs         2582856                       # Sample count of references to valid blocks.
system.cpu0.l2cache.tags.avg_refs            1.214443                       # Average number of references to valid blocks.
system.cpu0.l2cache.tags.warmup_cycle           73000                       # Cycle when the warmup percentage was hit.
system.cpu0.l2cache.tags.occ_blocks::writebacks    31.103370                       # Average occupied blocks per requestor
system.cpu0.l2cache.tags.occ_blocks::cpu0.inst    39.675299                       # Average occupied blocks per requestor
system.cpu0.l2cache.tags.occ_blocks::cpu0.data  4019.890376                       # Average occupied blocks per requestor
system.cpu0.l2cache.tags.occ_percent::writebacks     0.007594                       # Average percentage of cache occupancy
system.cpu0.l2cache.tags.occ_percent::cpu0.inst     0.009686                       # Average percentage of cache occupancy
system.cpu0.l2cache.tags.occ_percent::cpu0.data     0.981419                       # Average percentage of cache occupancy
system.cpu0.l2cache.tags.occ_percent::total     0.998698                       # Average percentage of cache occupancy
system.cpu0.l2cache.tags.occ_task_id_blocks::1024         4096                       # Occupied blocks per task id
system.cpu0.l2cache.tags.age_task_id_blocks_1024::0          336                       # Occupied blocks per task id
system.cpu0.l2cache.tags.age_task_id_blocks_1024::1          893                       # Occupied blocks per task id
system.cpu0.l2cache.tags.age_task_id_blocks_1024::2         2560                       # Occupied blocks per task id
system.cpu0.l2cache.tags.age_task_id_blocks_1024::3          307                       # Occupied blocks per task id
system.cpu0.l2cache.tags.occ_task_id_percent::1024            1                       # Percentage of cache occupancy per task id
system.cpu0.l2cache.tags.tag_accesses        25462480                       # Number of tag accesses
system.cpu0.l2cache.tags.data_accesses       25462480                       # Number of data accesses
system.cpu0.l2cache.pwrStateResidencyTicks::UNDEFINED  97712975880                       # Cumulative time (in ticks) in various power states
system.cpu0.l2cache.WritebackDirty_hits::writebacks      1129337                       # number of WritebackDirty hits
system.cpu0.l2cache.WritebackDirty_hits::total      1129337                       # number of WritebackDirty hits
system.cpu0.l2cache.WritebackClean_hits::writebacks         2549                       # number of WritebackClean hits
system.cpu0.l2cache.WritebackClean_hits::total         2549                       # number of WritebackClean hits
system.cpu0.l2cache.UpgradeReq_hits::cpu0.data       232422                       # number of UpgradeReq hits
system.cpu0.l2cache.UpgradeReq_hits::total       232422                       # number of UpgradeReq hits
system.cpu0.l2cache.ReadExReq_hits::cpu0.data        69935                       # number of ReadExReq hits
system.cpu0.l2cache.ReadExReq_hits::total        69935                       # number of ReadExReq hits
system.cpu0.l2cache.ReadCleanReq_hits::cpu0.inst          951                       # number of ReadCleanReq hits
system.cpu0.l2cache.ReadCleanReq_hits::total          951                       # number of ReadCleanReq hits
system.cpu0.l2cache.ReadSharedReq_hits::cpu0.data        92033                       # number of ReadSharedReq hits
system.cpu0.l2cache.ReadSharedReq_hits::total        92033                       # number of ReadSharedReq hits
system.cpu0.l2cache.demand_hits::cpu0.inst          951                       # number of demand (read+write) hits
system.cpu0.l2cache.demand_hits::cpu0.data       161968                       # number of demand (read+write) hits
[...]
system.l3.demand_mshr_miss_latency::cpu3.inst    112664344                       # number of demand (read+write) MSHR miss cycles
system.l3.demand_mshr_miss_latency::cpu3.data 127470935942                       # number of demand (read+write) MSHR miss cycles
system.l3.demand_mshr_miss_latency::total 507927787613                       # number of demand (read+write) MSHR miss cycles
system.l3.overall_mshr_miss_latency::cpu0.inst    114367944                       # number of overall MSHR miss cycles
system.l3.overall_mshr_miss_latency::cpu0.data 126511203825                       # number of overall MSHR miss cycles
system.l3.overall_mshr_miss_latency::cpu1.inst    112234053                       # number of overall MSHR miss cycles
system.l3.overall_mshr_miss_latency::cpu1.data 126797969566                       # number of overall MSHR miss cycles
system.l3.overall_mshr_miss_latency::cpu2.inst    115545411                       # number of overall MSHR miss cycles
system.l3.overall_mshr_miss_latency::cpu2.data 126692866528                       # number of overall MSHR miss cycles
system.l3.overall_mshr_miss_latency::cpu3.inst    112664344                       # number of overall MSHR miss cycles
system.l3.overall_mshr_miss_latency::cpu3.data 127470935942                       # number of overall MSHR miss cycles
system.l3.overall_mshr_miss_latency::total 507927787613                       # number of overall MSHR miss cycles
system.l3.CleanEvict_mshr_miss_rate::writebacks          inf                       # mshr miss rate for CleanEvict accesses
system.l3.CleanEvict_mshr_miss_rate::total          inf                       # mshr miss rate for CleanEvict accesses
system.l3.ReadExReq_mshr_miss_rate::cpu0.data     0.566170                       # mshr miss rate for ReadExReq accesses
system.l3.ReadExReq_mshr_miss_rate::cpu1.data     0.580772                       # mshr miss rate for ReadExReq accesses
system.l3.ReadExReq_mshr_miss_rate::cpu2.data     0.591647                       # mshr miss rate for ReadExReq accesses
system.l3.ReadExReq_mshr_miss_rate::cpu3.data     0.592734                       # mshr miss rate for ReadExReq accesses
system.l3.ReadExReq_mshr_miss_rate::total     0.582669                       # mshr miss rate for ReadExReq accesses
system.l3.ReadSharedReq_mshr_miss_rate::cpu0.inst     0.913434                       # mshr miss rate for ReadSharedReq accesses
system.l3.ReadSharedReq_mshr_miss_rate::cpu0.data     0.776389                       # mshr miss rate for ReadSharedReq accesses
system.l3.ReadSharedReq_mshr_miss_rate::cpu1.inst     0.909005                       # mshr miss rate for ReadSharedReq accesses
system.l3.ReadSharedReq_mshr_miss_rate::cpu1.data     0.771281                       # mshr miss rate for ReadSharedReq accesses
system.l3.ReadSharedReq_mshr_miss_rate::cpu2.inst     0.916193                       # mshr miss rate for ReadSharedReq accesses
system.l3.ReadSharedReq_mshr_miss_rate::cpu2.data     0.774665                       # mshr miss rate for ReadSharedReq accesses
system.l3.ReadSharedReq_mshr_miss_rate::cpu3.inst     0.914408                       # mshr miss rate for ReadSharedReq accesses
system.l3.ReadSharedReq_mshr_miss_rate::cpu3.data     0.774006                       # mshr miss rate for ReadSharedReq accesses
system.l3.ReadSharedReq_mshr_miss_rate::total     0.774232                       # mshr miss rate for ReadSharedReq accesses
system.l3.demand_mshr_miss_rate::cpu0.inst     0.913434                       # mshr miss rate for demand accesses
system.l3.demand_mshr_miss_rate::cpu0.data     0.731894                       # mshr miss rate for demand accesses
system.l3.demand_mshr_miss_rate::cpu1.inst     0.909005                       # mshr miss rate for demand accesses
system.l3.demand_mshr_miss_rate::cpu1.data     0.731490                       # mshr miss rate for demand accesses
system.l3.demand_mshr_miss_rate::cpu2.inst     0.916193                       # mshr miss rate for demand accesses
system.l3.demand_mshr_miss_rate::cpu2.data     0.736900                       # mshr miss rate for demand accesses
system.l3.demand_mshr_miss_rate::cpu3.inst     0.914408                       # mshr miss rate for demand accesses
system.l3.demand_mshr_miss_rate::cpu3.data     0.736698                       # mshr miss rate for demand accesses
system.l3.demand_mshr_miss_rate::total       0.734385                       # mshr miss rate for demand accesses
system.l3.overall_mshr_miss_rate::cpu0.inst     0.913434                       # mshr miss rate for overall accesses
system.l3.overall_mshr_miss_rate::cpu0.data     0.731894                       # mshr miss rate for overall accesses
system.l3.overall_mshr_miss_rate::cpu1.inst     0.909005                       # mshr miss rate for overall accesses
system.l3.overall_mshr_miss_rate::cpu1.data     0.731490                       # mshr miss rate for overall accesses
system.l3.overall_mshr_miss_rate::cpu2.inst     0.916193                       # mshr miss rate for overall accesses
system.l3.overall_mshr_miss_rate::cpu2.data     0.736900                       # mshr miss rate for overall accesses
system.l3.overall_mshr_miss_rate::cpu3.inst     0.914408                       # mshr miss rate for overall accesses
system.l3.overall_mshr_miss_rate::cpu3.data     0.736698                       # mshr miss rate for overall accesses
system.l3.overall_mshr_miss_rate::total      0.734385                       # mshr miss rate for overall accesses
system.l3.ReadExReq_avg_mshr_miss_latency::cpu0.data 68660.822854                       # average ReadExReq mshr miss latency
system.l3.ReadExReq_avg_mshr_miss_latency::cpu1.data 69716.737216                       # average ReadExReq mshr miss latency
system.l3.ReadExReq_avg_mshr_miss_latency::cpu2.data 69713.276555                       # average ReadExReq mshr miss latency
system.l3.ReadExReq_avg_mshr_miss_latency::cpu3.data 69856.465187                       # average ReadExReq mshr miss latency
system.l3.ReadExReq_avg_mshr_miss_latency::total 69488.389312                       # average ReadExReq mshr miss latency
system.l3.ReadSharedReq_avg_mshr_miss_latency::cpu0.inst 59227.314345                       # average ReadSharedReq mshr miss latency
system.l3.ReadSharedReq_avg_mshr_miss_latency::cpu0.data 66696.254654                       # average ReadSharedReq mshr miss latency
system.l3.ReadSharedReq_avg_mshr_miss_latency::cpu1.inst 58516.190302                       # average ReadSharedReq mshr miss latency
system.l3.ReadSharedReq_avg_mshr_miss_latency::cpu1.data 67259.620711                       # average ReadSharedReq mshr miss latency
system.l3.ReadSharedReq_avg_mshr_miss_latency::cpu2.inst 59713.390698                       # average ReadSharedReq mshr miss latency
system.l3.ReadSharedReq_avg_mshr_miss_latency::cpu2.data 66878.685231                       # average ReadSharedReq mshr miss latency
system.l3.ReadSharedReq_avg_mshr_miss_latency::cpu3.inst 58587.802392                       # average ReadSharedReq mshr miss latency
system.l3.ReadSharedReq_avg_mshr_miss_latency::cpu3.data 67286.194416                       # average ReadSharedReq mshr miss latency
system.l3.ReadSharedReq_avg_mshr_miss_latency::total 67019.700128                       # average ReadSharedReq mshr miss latency
system.l3.demand_avg_mshr_miss_latency::cpu0.inst 59227.314345                       # average overall mshr miss latency
system.l3.demand_avg_mshr_miss_latency::cpu0.data 67017.920978                       # average overall mshr miss latency
system.l3.demand_avg_mshr_miss_latency::cpu1.inst 58516.190302                       # average overall mshr miss latency
system.l3.demand_avg_mshr_miss_latency::cpu1.data 67667.086248                       # average overall mshr miss latency
system.l3.demand_avg_mshr_miss_latency::cpu2.inst 59713.390698                       # average overall mshr miss latency
system.l3.demand_avg_mshr_miss_latency::cpu2.data 67348.303109                       # average overall mshr miss latency
system.l3.demand_avg_mshr_miss_latency::cpu3.inst 58587.802392                       # average overall mshr miss latency
system.l3.demand_avg_mshr_miss_latency::cpu3.data 67711.810167                       # average overall mshr miss latency
system.l3.demand_avg_mshr_miss_latency::total 67427.124560                       # average overall mshr miss latency
system.l3.overall_avg_mshr_miss_latency::cpu0.inst 59227.314345                       # average overall mshr miss latency
system.l3.overall_avg_mshr_miss_latency::cpu0.data 67017.920978                       # average overall mshr miss latency
system.l3.overall_avg_mshr_miss_latency::cpu1.inst 58516.190302                       # average overall mshr miss latency
system.l3.overall_avg_mshr_miss_latency::cpu1.data 67667.086248                       # average overall mshr miss latency
system.l3.overall_avg_mshr_miss_latency::cpu2.inst 59713.390698                       # average overall mshr miss latency
system.l3.overall_avg_mshr_miss_latency::cpu2.data 67348.303109                       # average overall mshr miss latency
system.l3.overall_avg_mshr_miss_latency::cpu3.inst 58587.802392                       # average overall mshr miss latency
system.l3.overall_avg_mshr_miss_latency::cpu3.data 67711.810167                       # average overall mshr miss latency
system.l3.overall_avg_mshr_miss_latency::total 67427.124560                       # average overall mshr miss latency
system.membus.snoop_filter.tot_requests      14933067                       # Total number of requests made to the snoop filter.
system.membus.snoop_filter.hit_single_requests      7400081                       # Number of requests hitting in the snoop filter with a single holder of the requested data.
system.membus.snoop_filter.hit_multi_requests            0                       # Number of requests hitting in the snoop filter with multiple (>1) holders of the requested data.
system.membus.snoop_filter.tot_snoops               0                       # Total number of snoops made to the snoop filter.
system.membus.snoop_filter.hit_single_snoops            0                       # Number of snoops hitting in the snoop filter with a single holder of the requested data.
system.membus.snoop_filter.hit_multi_snoops            0                       # Number of snoops hitting in the snoop filter with multiple (>1) holders of the requested data.
system.membus.pwrStateResidencyTicks::UNDEFINED  97712975880                       # Cumulative time (in ticks) in various power states
system.membus.trans_dist::ReadResp            6289763                       # Transaction distribution
system.membus.trans_dist::WritebackDirty      2006171                       # Transaction distribution
system.membus.trans_dist::CleanEvict          5393908                       # Transaction distribution
system.membus.trans_dist::ReadExReq           1243220                       # Transaction distribution
system.membus.trans_dist::ReadExResp          1243220                       # Transaction distribution
system.membus.trans_dist::ReadSharedReq       6289768                       # Transaction distribution
system.membus.pkt_count_system.l3.mem_side::system.mem_ctrls.port     22466050                       # Packet count per connected master and slave (bytes)
system.membus.pkt_count_system.l3.mem_side::total     22466050                       # Packet count per connected master and slave (bytes)
system.membus.pkt_count::total               22466050                       # Packet count per connected master and slave (bytes)
system.membus.pkt_size_system.l3.mem_side::system.mem_ctrls.port    610505856                       # Cumulative packet size per connected master and slave (bytes)
system.membus.pkt_size_system.l3.mem_side::total    610505856                       # Cumulative packet size per connected master and slave (bytes)
system.membus.pkt_size::total               610505856                       # Cumulative packet size per connected master and slave (bytes)
system.membus.snoops                                0                       # Total snoops (count)
system.membus.snoopTraffic                          0                       # Total snoop traffic (bytes)
system.membus.snoop_fanout::samples           7532988                       # Request fanout histogram
system.membus.snoop_fanout::mean                    0                       # Request fanout histogram
system.membus.snoop_fanout::stdev                   0                       # Request fanout histogram
system.membus.snoop_fanout::underflows              0      0.00%      0.00% # Request fanout histogram
system.membus.snoop_fanout::0                 7532988    100.00%    100.00% # Request fanout histogram
system.membus.snoop_fanout::1                       0      0.00%    100.00% # Request fanout histogram
system.membus.snoop_fanout::overflows               0      0.00%    100.00% # Request fanout histogram
system.membus.snoop_fanout::min_value               0                       # Request fanout histogram
system.membus.snoop_fanout::max_value               0                       # Request fanout histogram
system.membus.snoop_fanout::total             7532988                       # Request fanout histogram
system.membus.reqLayer8.occupancy         25171819616                       # Layer occupancy (ticks)
system.membus.reqLayer8.utilization              25.8                       # Layer utilization (%)
system.membus.respLayer1.occupancy        39036068063                       # Layer occupancy (ticks)
system.membus.respLayer1.utilization             39.9                       # Layer utilization (%)
system.tol3bus.snoop_filter.tot_requests     20497111                       # Total number of requests made to the snoop filter.
system.tol3bus.snoop_filter.hit_single_requests     10239572                       # Number of requests hitting in the snoop filter with a single holder of the requested data.
system.tol3bus.snoop_filter.hit_multi_requests            0                       # Number of requests hitting in the snoop filter with multiple (>1) holders of the requested data.
system.tol3bus.snoop_filter.tot_snoops           5914                       # Total number of snoops made to the snoop filter.
system.tol3bus.snoop_filter.hit_single_snoops         5914                       # Number of snoops hitting in the snoop filter with a single holder of the requested data.
system.tol3bus.snoop_filter.hit_multi_snoops            0                       # Number of snoops hitting in the snoop filter with multiple (>1) holders of the requested data.
system.tol3bus.pwrStateResidencyTicks::UNDEFINED  97712975880                       # Cumulative time (in ticks) in various power states
system.tol3bus.trans_dist::ReadResp           8123877                       # Transaction distribution
system.tol3bus.trans_dist::WritebackDirty      6421862                       # Transaction distribution
system.tol3bus.trans_dist::CleanEvict        11221659                       # Transaction distribution
system.tol3bus.trans_dist::UpgradeReq               8                       # Transaction distribution
system.tol3bus.trans_dist::UpgradeResp              8                       # Transaction distribution
system.tol3bus.trans_dist::ReadExReq          2133663                       # Transaction distribution
system.tol3bus.trans_dist::ReadExResp         2133662                       # Transaction distribution
system.tol3bus.trans_dist::ReadSharedReq      8123884                       # Transaction distribution
system.tol3bus.pkt_count_system.cpu0.l2cache.mem_side::system.l3.cpu_side      7739505                       # Packet count per connected master and slave (bytes)
system.tol3bus.pkt_count_system.cpu1.l2cache.mem_side::system.l3.cpu_side      7686900                       # Packet count per connected master and slave (bytes)
system.tol3bus.pkt_count_system.cpu2.l2cache.mem_side::system.l3.cpu_side      7660276                       # Packet count per connected master and slave (bytes)
system.tol3bus.pkt_count_system.cpu3.l2cache.mem_side::system.l3.cpu_side      7667977                       # Packet count per connected master and slave (bytes)
system.tol3bus.pkt_count::total              30754658                       # Packet count per connected master and slave (bytes)
system.tol3bus.pkt_size_system.cpu0.l2cache.mem_side::system.l3.cpu_side    236004928                       # Cumulative packet size per connected master and slave (bytes)
system.tol3bus.pkt_size_system.cpu1.l2cache.mem_side::system.l3.cpu_side    235186752                       # Cumulative packet size per connected master and slave (bytes)
system.tol3bus.pkt_size_system.cpu2.l2cache.mem_side::system.l3.cpu_side    233432256                       # Cumulative packet size per connected master and slave (bytes)
system.tol3bus.pkt_size_system.cpu3.l2cache.mem_side::system.l3.cpu_side    234462784                       # Cumulative packet size per connected master and slave (bytes)
system.tol3bus.pkt_size::total              939086720                       # Cumulative packet size per connected master and slave (bytes)
system.tol3bus.snoops                         7403965                       # Total snoops (count)
system.tol3bus.snoopTraffic                 128394944                       # Total snoop traffic (bytes)
system.tol3bus.snoop_fanout::samples         17661520                       # Request fanout histogram
system.tol3bus.snoop_fanout::mean            0.000335                       # Request fanout histogram
system.tol3bus.snoop_fanout::stdev           0.018296                       # Request fanout histogram
system.tol3bus.snoop_fanout::underflows             0      0.00%      0.00% # Request fanout histogram
system.tol3bus.snoop_fanout::0               17655606     99.97%     99.97% # Request fanout histogram
system.tol3bus.snoop_fanout::1                   5914      0.03%    100.00% # Request fanout histogram
system.tol3bus.snoop_fanout::2                      0      0.00%    100.00% # Request fanout histogram
system.tol3bus.snoop_fanout::3                      0      0.00%    100.00% # Request fanout histogram
system.tol3bus.snoop_fanout::4                      0      0.00%    100.00% # Request fanout histogram
system.tol3bus.snoop_fanout::overflows              0      0.00%    100.00% # Request fanout histogram
system.tol3bus.snoop_fanout::min_value              0                       # Request fanout histogram
system.tol3bus.snoop_fanout::max_value              1                       # Request fanout histogram
system.tol3bus.snoop_fanout::total           17661520                       # Request fanout histogram
system.tol3bus.reqLayer0.occupancy        33100092531                       # Layer occupancy (ticks)
system.tol3bus.reqLayer0.utilization             33.9                       # Layer utilization (%)
system.tol3bus.respLayer0.occupancy        8239789403                       # Layer occupancy (ticks)
system.tol3bus.respLayer0.utilization             8.4                       # Layer utilization (%)
system.tol3bus.respLayer1.occupancy        8183603228                       # Layer occupancy (ticks)
system.tol3bus.respLayer1.utilization             8.4                       # Layer utilization (%)
system.tol3bus.respLayer2.occupancy        8153561325                       # Layer occupancy (ticks)
system.tol3bus.respLayer2.utilization             8.3                       # Layer utilization (%)
system.tol3bus.respLayer3.occupancy        8164236529                       # Layer occupancy (ticks)
system.tol3bus.respLayer3.utilization             8.4                       # Layer utilization (%)

---------- End Simulation Statistics   ----------
