
---------- Begin Simulation Statistics ----------
sim_seconds                                  0.008284                       # Number of seconds simulated
sim_ticks                                  8283709998                       # Number of ticks simulated
final_tick                                 8283709998                       # Number of ticks from beginning of simulation (restored from checkpoints and never reset)
sim_freq                                 1000000000000                       # Frequency of simulated ticks
host_inst_rate                                 130180                       # Simulator instruction rate (inst/s)
host_op_rate                                   276203                       # Simulator op (including micro ops) rate (op/s)
host_tick_rate                               27141844                       # Simulator tick rate (ticks/s)
host_mem_usage                               33854312                       # Number of bytes of host memory used
host_seconds                                   305.20                       # Real time elapsed on the host
sim_insts                                    39730885                       # Number of instructions simulated
sim_ops                                      84297282                       # Number of ops (including micro ops) simulated
system.voltage_domain.voltage                       1                       # Voltage in Volts
system.clk_domain.clock                          1000                       # Clock period in ticks
system.mem_ctrls.pwrStateResidencyTicks::UNDEFINED   8283709998                       # Cumulative time (in ticks) in various power states
system.mem_ctrls.bytes_read::cpu0.inst          87424                       # Number of bytes read from this memory
system.mem_ctrls.bytes_read::cpu0.data        7623040                       # Number of bytes read from this memory
system.mem_ctrls.bytes_read::cpu1.inst          86912                       # Number of bytes read from this memory
system.mem_ctrls.bytes_read::cpu1.data        7606208                       # Number of bytes read from this memory
system.mem_ctrls.bytes_read::cpu2.inst          86528                       # Number of bytes read from this memory
system.mem_ctrls.bytes_read::cpu2.data        7639680                       # Number of bytes read from this memory
system.mem_ctrls.bytes_read::cpu3.inst          86592                       # Number of bytes read from this memory
system.mem_ctrls.bytes_read::cpu3.data        7612544                       # Number of bytes read from this memory
system.mem_ctrls.bytes_read::total           30828928                       # Number of bytes read from this memory
system.mem_ctrls.bytes_inst_read::cpu0.inst        87424                       # Number of instructions bytes read from this memory
system.mem_ctrls.bytes_inst_read::cpu1.inst        86912                       # Number of instructions bytes read from this memory
system.mem_ctrls.bytes_inst_read::cpu2.inst        86528                       # Number of instructions bytes read from this memory
system.mem_ctrls.bytes_inst_read::cpu3.inst        86592                       # Number of instructions bytes read from this memory
system.mem_ctrls.bytes_inst_read::total        347456                       # Number of instructions bytes read from this memory
system.mem_ctrls.bytes_written::writebacks      6360128                       # Number of bytes written to this memory
system.mem_ctrls.bytes_written::total         6360128                       # Number of bytes written to this memory
system.mem_ctrls.num_reads::cpu0.inst            1366                       # Number of read requests responded to by this memory
system.mem_ctrls.num_reads::cpu0.data          119110                       # Number of read requests responded to by this memory
system.mem_ctrls.num_reads::cpu1.inst            1358                       # Number of read requests responded to by this memory
system.mem_ctrls.num_reads::cpu1.data          118847                       # Number of read requests responded to by this memory
system.mem_ctrls.num_reads::cpu2.inst            1352                       # Number of read requests responded to by this memory
system.mem_ctrls.num_reads::cpu2.data          119370                       # Number of read requests responded to by this memory
system.mem_ctrls.num_reads::cpu3.inst            1353                       # Number of read requests responded to by this memory
system.mem_ctrls.num_reads::cpu3.data          118946                       # Number of read requests responded to by this memory
system.mem_ctrls.num_reads::total              481702                       # Number of read requests responded to by this memory
system.mem_ctrls.num_writes::writebacks         99377                       # Number of write requests responded to by this memory
system.mem_ctrls.num_writes::total              99377                       # Number of write requests responded to by this memory
system.mem_ctrls.bw_read::cpu0.inst          10553725                       # Total read bandwidth from this memory (bytes/s)
system.mem_ctrls.bw_read::cpu0.data         920244673                       # Total read bandwidth from this memory (bytes/s)
system.mem_ctrls.bw_read::cpu1.inst          10491917                       # Total read bandwidth from this memory (bytes/s)
system.mem_ctrls.bw_read::cpu1.data         918212733                       # Total read bandwidth from this memory (bytes/s)
system.mem_ctrls.bw_read::cpu2.inst          10445561                       # Total read bandwidth from this memory (bytes/s)
system.mem_ctrls.bw_read::cpu2.data         922253435                       # Total read bandwidth from this memory (bytes/s)
system.mem_ctrls.bw_read::cpu3.inst          10453287                       # Total read bandwidth from this memory (bytes/s)
system.mem_ctrls.bw_read::cpu3.data         918977608                       # Total read bandwidth from this memory (bytes/s)
system.mem_ctrls.bw_read::total            3721632941                       # Total read bandwidth from this memory (bytes/s)
system.mem_ctrls.bw_inst_read::cpu0.inst     10553725                       # Instruction read bandwidth from this memory (bytes/s)
system.mem_ctrls.bw_inst_read::cpu1.inst     10491917                       # Instruction read bandwidth from this memory (bytes/s)
system.mem_ctrls.bw_inst_read::cpu2.inst     10445561                       # Instruction read bandwidth from this memory (bytes/s)
system.mem_ctrls.bw_inst_read::cpu3.inst     10453287                       # Instruction read bandwidth from this memory (bytes/s)
system.mem_ctrls.bw_inst_read::total         41944491                       # Instruction read bandwidth from this memory (bytes/s)
system.mem_ctrls.bw_write::writebacks       767787380                       # Write bandwidth from this memory (bytes/s)
system.mem_ctrls.bw_write::total            767787380                       # Write bandwidth from this memory (bytes/s)
system.mem_ctrls.bw_total::writebacks       767787380                       # Total bandwidth to/from this memory (bytes/s)
system.mem_ctrls.bw_total::cpu0.inst         10553725                       # Total bandwidth to/from this memory (bytes/s)
system.mem_ctrls.bw_total::cpu0.data        920244673                       # Total bandwidth to/from this memory (bytes/s)
system.mem_ctrls.bw_total::cpu1.inst         10491917                       # Total bandwidth to/from this memory (bytes/s)
system.mem_ctrls.bw_total::cpu1.data        918212733                       # Total bandwidth to/from this memory (bytes/s)
system.mem_ctrls.bw_total::cpu2.inst         10445561                       # Total bandwidth to/from this memory (bytes/s)
system.mem_ctrls.bw_total::cpu2.data        922253435                       # Total bandwidth to/from this memory (bytes/s)
system.mem_ctrls.bw_total::cpu3.inst         10453287                       # Total bandwidth to/from this memory (bytes/s)
system.mem_ctrls.bw_total::cpu3.data        918977608                       # Total bandwidth to/from this memory (bytes/s)
system.mem_ctrls.bw_total::total           4489420321                       # Total bandwidth to/from this memory (bytes/s)
system.pwrStateResidencyTicks::UNDEFINED   8283709998                       # Cumulative time (in ticks) in various power states
system.cpu0.branchPred.lookups                1400511                       # Number of BP lookups
system.cpu0.branchPred.condPredicted          1400511                       # Number of conditional branches predicted
system.cpu0.branchPred.condIncorrect             8077                       # Number of conditional branches incorrect
system.cpu0.branchPred.BTBLookups             1100051                       # Number of BTB lookups
system.cpu0.branchPred.BTBHits                      0                       # Number of BTB hits
system.cpu0.branchPred.BTBCorrect                   0                       # Number of correct BTB predictions (this stat may not work properly.
system.cpu0.branchPred.BTBHitPct             0.000000                       # BTB Hit Percentage
system.cpu0.branchPred.usedRAS                 174016                       # Number of times the RAS was used to get a target.
system.cpu0.branchPred.RASInCorrect               935                       # Number of incorrect RAS predictions.
system.cpu0.branchPred.indirectLookups        1100051                       # Number of indirect predictor lookups.
system.cpu0.branchPred.indirectHits            618569                       # Number of indirect target hits.
system.cpu0.branchPred.indirectMisses          481482                       # Number of indirect misses.
system.cpu0.branchPredindirectMispredicted         6086                       # Number of mispredicted indirect branches.
system.cpu_voltage_domain.voltage                   1                       # Voltage in Volts
system.cpu_clk_domain.clock                       333                       # Clock period in ticks
system.cpu0.dtb.walker.pwrStateResidencyTicks::UNDEFINED   8283709998                       # Cumulative time (in ticks) in various power states
system.cpu0.dtb.rdAccesses                    2758912                       # TLB accesses on read requests
system.cpu0.dtb.wrAccesses                    1230858                       # TLB accesses on write requests
system.cpu0.dtb.rdMisses                        29499                       # TLB misses on read requests
system.cpu0.dtb.wrMisses                         2687                       # TLB misses on write requests
system.cpu0.apic_clk_domain.clock                5328                       # Clock period in ticks
system.cpu0.interrupts.pwrStateResidencyTicks::UNDEFINED   8283709998                       # Cumulative time (in ticks) in various power states
system.cpu0.itb.walker.pwrStateResidencyTicks::UNDEFINED   8283709998                       # Cumulative time (in ticks) in various power states
system.cpu0.itb.rdAccesses                          0                       # TLB accesses on read requests
system.cpu0.itb.wrAccesses                    1339521                       # TLB accesses on write requests
system.cpu0.itb.rdMisses                            0                       # TLB misses on read requests
system.cpu0.itb.wrMisses                          223                       # TLB misses on write requests
system.cpu0.workload.numSyscalls                   50                       # Number of system calls
system.cpu0.pwrStateResidencyTicks::ON     8283709998                       # Cumulative time (in ticks) in various power states
system.cpu0.numCycles                        24876007                       # number of cpu cycles simulated
system.cpu0.numWorkItemsStarted                     0                       # number of work items this cpu started
system.cpu0.numWorkItemsCompleted                   0                       # number of work items this cpu completed
system.cpu0.fetch.icacheStallCycles           1388353                       # Number of cycles fetch is stalled on an Icache miss
system.cpu0.fetch.Insts                      10192544                       # Number of instructions fetch has processed
system.cpu0.fetch.Branches                    1400511                       # Number of branches that fetch encountered
system.cpu0.fetch.predictedBranches            792585                       # Number of branches that fetch has predicted taken
system.cpu0.fetch.Cycles                     23349405                       # Number of cycles fetch has run and was not squashing or blocked
system.cpu0.fetch.SquashCycles                  16714                       # Number of cycles fetch has spent squashing
system.cpu0.fetch.MiscStallCycles                 179                       # Number of cycles fetch has spent waiting on interrupts, or bad addresses, or out of MSHRs
system.cpu0.fetch.PendingTrapStallCycles          670                       # Number of stall cycles due to pending traps
system.cpu0.fetch.PendingQuiesceStallCycles            6                       # Number of stall cycles due to pending quiesce instructions
system.cpu0.fetch.IcacheWaitRetryStallCycles          134                       # Number of stall cycles due to full MSHR
system.cpu0.fetch.CacheLines                  1339385                       # Number of cache lines fetched
system.cpu0.fetch.IcacheSquashes                 3011                       # Number of outstanding Icache misses that were squashed
system.cpu0.fetch.rateDist::samples          24747104                       # Number of instructions fetched each cycle (Total)
system.cpu0.fetch.rateDist::mean             0.870194                       # Number of instructions fetched each cycle (Total)
system.cpu0.fetch.rateDist::stdev            2.321191                       # Number of instructions fetched each cycle (Total)
system.cpu0.fetch.rateDist::underflows              0      0.00%      0.00% # Number of instructions fetched each cycle (Total)
system.cpu0.fetch.rateDist::0                21207512     85.70%     85.70% # Number of instructions fetched each cycle (Total)
system.cpu0.fetch.rateDist::1                  217197      0.88%     86.57% # Number of instructions fetched each cycle (Total)
system.cpu0.fetch.rateDist::2                  235049      0.95%     87.52% # Number of instructions fetched each cycle (Total)
system.cpu0.fetch.rateDist::3                  296855      1.20%     88.72% # Number of instructions fetched each cycle (Total)
system.cpu0.fetch.rateDist::4                  309301      1.25%     89.97% # Number of instructions fetched each cycle (Total)
system.cpu0.fetch.rateDist::5                  171833      0.69%     90.67% # Number of instructions fetched each cycle (Total)
system.cpu0.fetch.rateDist::6                  208585      0.84%     91.51% # Number of instructions fetched each cycle (Total)
system.cpu0.fetch.rateDist::7                  197145      0.80%     92.31% # Number of instructions fetched each cycle (Total)
system.cpu0.fetch.rateDist::8                 1903627      7.69%    100.00% # Number of instructions fetched each cycle (Total)
system.cpu0.fetch.rateDist::overflows               0      0.00%    100.00% # Number of instructions fetched each cycle (Total)
system.cpu0.fetch.rateDist::min_value               0                       # Number of instructions fetched each cycle (Total)
system.cpu0.fetch.rateDist::max_value               8                       # Number of instructions fetched each cycle (Total)
system.cpu0.fetch.rateDist::total            24747104                       # Number of instructions fetched each cycle (Total)
system.cpu0.fetch.branchRate                 0.056300                       # Number of branch fetches per cycle
system.cpu0.fetch.rate                       0.409734                       # Number of inst fetches per cycle
system.cpu0.decode.IdleCycles                  922512                       # Number of cycles decode is idle
system.cpu0.decode.BlockedCycles             20956417                       # Number of cycles decode is blocked
system.cpu0.decode.RunCycles                  1442018                       # Number of cycles decode is running
system.cpu0.decode.UnblockCycles              1417800                       # Number of cycles decode is unblocking
system.cpu0.decode.SquashCycles                  8357                       # Number of cycles decode is squashing
system.cpu0.decode.DecodedInsts              21467161                       # Number of instructions handled by decode
system.cpu0.rename.SquashCycles                  8357                       # Number of cycles rename is squashing
system.cpu0.rename.IdleCycles                 1447251                       # Number of cycles rename is idle
system.cpu0.rename.BlockCycles               11336079                       # Number of cycles rename is blocking
system.cpu0.rename.serializeStallCycles          6171                       # count of cycles rename stalled for serializing inst
system.cpu0.rename.RunCycles                  2313908                       # Number of cycles rename is running
system.cpu0.rename.UnblockCycles              9635338                       # Number of cycles rename is unblocking
system.cpu0.rename.RenamedInsts              21431764                       # Number of instructions processed by rename
system.cpu0.rename.ROBFullEvents                 1691                       # Number of times rename has blocked due to ROB full
system.cpu0.rename.IQFullEvents               2551816                       # Number of times rename has blocked due to IQ full
system.cpu0.rename.LQFullEvents                687787                       # Number of times rename has blocked due to LQ full
system.cpu0.rename.SQFullEvents               6174717                       # Number of times rename has blocked due to SQ full
system.cpu0.rename.RenamedOperands           27476034                       # Number of destination operands rename has renamed
system.cpu0.rename.RenameLookups             63140960                       # Number of register rename lookups that rename has made
system.cpu0.rename.int_rename_lookups        35628128                       # Number of integer rename lookups
system.cpu0.rename.fp_rename_lookups          7003799                       # Number of floating rename lookups
system.cpu0.rename.CommittedMaps             27178169                       # Number of HB maps that are committed
system.cpu0.rename.UndoneMaps                  297652                       # Number of HB maps that are undone due to squashing
system.cpu0.rename.serializingInsts               140                       # count of serializing insts renamed
system.cpu0.rename.tempSerializingInsts           138                       # count of temporary serializing insts renamed
system.cpu0.rename.skidInsts                  7036762                       # count of insts added to the skid buffer
system.cpu0.memDep0.insertedLoads             2665907                       # Number of loads inserted to the mem dependence unit.
system.cpu0.memDep0.insertedStores            1240837                       # Number of stores inserted to the mem dependence unit.
system.cpu0.memDep0.conflictingLoads           256034                       # Number of conflicting loads.
system.cpu0.memDep0.conflictingStores           79348                       # Number of conflicting stores.
system.cpu0.iq.iqInstsAdded                  21369520                       # Number of instructions added to the IQ (excludes non-spec)
system.cpu0.iq.iqNonSpecInstsAdded               1520                       # Number of non-speculative instructions added to the IQ
system.cpu0.iq.iqInstsIssued                 21405093                       # Number of instructions issued
system.cpu0.iq.iqSquashedInstsIssued             2552                       # Number of squashed instructions issued
system.cpu0.iq.iqSquashedInstsExamined         205377                       # Number of squashed instructions iterated over during squash; mainly for profiling
system.cpu0.iq.iqSquashedOperandsExamined       289959                       # Number of squashed operands that are examined and possibly removed from graph
system.cpu0.iq.iqSquashedNonSpecRemoved          1182                       # Number of squashed non-spec instructions that were removed
system.cpu0.iq.issued_per_cycle::samples     24747104                       # Number of insts issued each cycle
system.cpu0.iq.issued_per_cycle::mean        0.864953                       # Number of insts issued each cycle
system.cpu0.iq.issued_per_cycle::stdev       1.718508                       # Number of insts issued each cycle
system.cpu0.iq.issued_per_cycle::underflows            0      0.00%      0.00% # Number of insts issued each cycle
system.cpu0.iq.issued_per_cycle::0           17843890     72.10%     72.10% # Number of insts issued each cycle
system.cpu0.iq.issued_per_cycle::1            1593002      6.44%     78.54% # Number of insts issued each cycle
system.cpu0.iq.issued_per_cycle::2            1582434      6.39%     84.94% # Number of insts issued each cycle
system.cpu0.iq.issued_per_cycle::3            1419914      5.74%     90.67% # Number of insts issued each cycle
system.cpu0.iq.issued_per_cycle::4             874449      3.53%     94.21% # Number of insts issued each cycle
system.cpu0.iq.issued_per_cycle::5             505045      2.04%     96.25% # Number of insts issued each cycle
system.cpu0.iq.issued_per_cycle::6             400907      1.62%     97.87% # Number of insts issued each cycle
system.cpu0.iq.issued_per_cycle::7             260686      1.05%     98.92% # Number of insts issued each cycle
system.cpu0.iq.issued_per_cycle::8             266777      1.08%    100.00% # Number of insts issued each cycle
system.cpu0.iq.issued_per_cycle::overflows            0      0.00%    100.00% # Number of insts issued each cycle
system.cpu0.iq.issued_per_cycle::min_value            0                       # Number of insts issued each cycle
system.cpu0.iq.issued_per_cycle::max_value            8                       # Number of insts issued each cycle
system.cpu0.iq.issued_per_cycle::total       24747104                       # Number of insts issued each cycle
system.cpu0.iq.fu_full::No_OpClass                  0      0.00%      0.00% # attempts to use FU when none available
system.cpu0.iq.fu_full::IntAlu                  92820     46.55%     46.55% # attempts to use FU when none available
system.cpu0.iq.fu_full::IntMult                     0      0.00%     46.55% # attempts to use FU when none available
system.cpu0.iq.fu_full::IntDiv                      0      0.00%     46.55% # attempts to use FU when none available
system.cpu0.iq.fu_full::FloatAdd                27825     13.96%     60.51% # attempts to use FU when none available
system.cpu0.iq.fu_full::FloatCmp                    0      0.00%     60.51% # attempts to use FU when none available
system.cpu0.iq.fu_full::FloatCvt                    0      0.00%     60.51% # attempts to use FU when none available
system.cpu0.iq.fu_full::FloatMult                   0      0.00%     60.51% # attempts to use FU when none available
system.cpu0.iq.fu_full::FloatMultAcc                0      0.00%     60.51% # attempts to use FU when none available
system.cpu0.iq.fu_full::FloatDiv                    0      0.00%     60.51% # attempts to use FU when none available
system.cpu0.iq.fu_full::FloatMisc                   0      0.00%     60.51% # attempts to use FU when none available
system.cpu0.iq.fu_full::FloatSqrt                   0      0.00%     60.51% # attempts to use FU when none available
system.cpu0.iq.fu_full::SimdAdd                     0      0.00%     60.51% # attempts to use FU when none available
system.cpu0.iq.fu_full::SimdAddAcc                  0      0.00%     60.51% # attempts to use FU when none available
system.cpu0.iq.fu_full::SimdAlu                     0      0.00%     60.51% # attempts to use FU when none available
system.cpu0.iq.fu_full::SimdCmp                     0      0.00%     60.51% # attempts to use FU when none available
system.cpu0.iq.fu_full::SimdCvt                     0      0.00%     60.51% # attempts to use FU when none available
system.cpu0.iq.fu_full::SimdMisc                    0      0.00%     60.51% # attempts to use FU when none available
system.cpu0.iq.fu_full::SimdMult                    0      0.00%     60.51% # attempts to use FU when none available
system.cpu0.iq.fu_full::SimdMultAcc                 0      0.00%     60.51% # attempts to use FU when none available
system.cpu0.iq.fu_full::SimdShift                   0      0.00%     60.51% # attempts to use FU when none available
system.cpu0.iq.fu_full::SimdShiftAcc                0      0.00%     60.51% # attempts to use FU when none available
system.cpu0.iq.fu_full::SimdSqrt                    0      0.00%     60.51% # attempts to use FU when none available
system.cpu0.iq.fu_full::SimdFloatAdd                0      0.00%     60.51% # attempts to use FU when none available
system.cpu0.iq.fu_full::SimdFloatAlu                0      0.00%     60.51% # attempts to use FU when none available
system.cpu0.iq.fu_full::SimdFloatCmp                0      0.00%     60.51% # attempts to use FU when none available
system.cpu0.iq.fu_full::SimdFloatCvt                0      0.00%     60.51% # attempts to use FU when none available
system.cpu0.iq.fu_full::SimdFloatDiv                0      0.00%     60.51% # attempts to use FU when none available
system.cpu0.iq.fu_full::SimdFloatMisc               0      0.00%     60.51% # attempts to use FU when none available
system.cpu0.iq.fu_full::SimdFloatMult               0      0.00%     60.51% # attempts to use FU when none available
system.cpu0.iq.fu_full::SimdFloatMultAcc            0      0.00%     60.51% # attempts to use FU when none available
system.cpu0.iq.fu_full::SimdFloatSqrt               0      0.00%     60.51% # attempts to use FU when none available
system.cpu0.iq.fu_full::MemRead                 31632     15.86%     76.37% # attempts to use FU when none available
system.cpu0.iq.fu_full::MemWrite                24201     12.14%     88.51% # attempts to use FU when none available
system.cpu0.iq.fu_full::FloatMemRead            22511     11.29%     99.80% # attempts to use FU when none available
system.cpu0.iq.fu_full::FloatMemWrite             395      0.20%    100.00% # attempts to use FU when none available
system.cpu0.iq.fu_full::IprAccess                   0      0.00%    100.00% # attempts to use FU when none available
system.cpu0.iq.fu_full::InstPrefetch                0      0.00%    100.00% # attempts to use FU when none available
system.cpu0.iq.FU_type_0::No_OpClass           195809      0.91%      0.91% # Type of FU issued
system.cpu0.iq.FU_type_0::IntAlu             14018025     65.49%     66.40% # Type of FU issued
system.cpu0.iq.FU_type_0::IntMult              130412      0.61%     67.01% # Type of FU issued
system.cpu0.iq.FU_type_0::IntDiv              1344306      6.28%     73.29% # Type of FU issued
system.cpu0.iq.FU_type_0::FloatAdd            1721521      8.04%     81.34% # Type of FU issued
system.cpu0.iq.FU_type_0::FloatCmp                  0      0.00%     81.34% # Type of FU issued
system.cpu0.iq.FU_type_0::FloatCvt                  0      0.00%     81.34% # Type of FU issued
system.cpu0.iq.FU_type_0::FloatMult                 0      0.00%     81.34% # Type of FU issued
system.cpu0.iq.FU_type_0::FloatMultAcc              0      0.00%     81.34% # Type of FU issued
system.cpu0.iq.FU_type_0::FloatDiv                  0      0.00%     81.34% # Type of FU issued
system.cpu0.iq.FU_type_0::FloatMisc                 0      0.00%     81.34% # Type of FU issued
system.cpu0.iq.FU_type_0::FloatSqrt                 0      0.00%     81.34% # Type of FU issued
system.cpu0.iq.FU_type_0::SimdAdd                   0      0.00%     81.34% # Type of FU issued
system.cpu0.iq.FU_type_0::SimdAddAcc                0      0.00%     81.34% # Type of FU issued
system.cpu0.iq.FU_type_0::SimdAlu                   0      0.00%     81.34% # Type of FU issued
system.cpu0.iq.FU_type_0::SimdCmp                   0      0.00%     81.34% # Type of FU issued
system.cpu0.iq.FU_type_0::SimdCvt                   0      0.00%     81.34% # Type of FU issued
system.cpu0.iq.FU_type_0::SimdMisc                  0      0.00%     81.34% # Type of FU issued
system.cpu0.iq.FU_type_0::SimdMult                  0      0.00%     81.34% # Type of FU issued
system.cpu0.iq.FU_type_0::SimdMultAcc               0      0.00%     81.34% # Type of FU issued
system.cpu0.iq.FU_type_0::SimdShift                 0      0.00%     81.34% # Type of FU issued
system.cpu0.iq.FU_type_0::SimdShiftAcc              0      0.00%     81.34% # Type of FU issued
system.cpu0.iq.FU_type_0::SimdSqrt                  0      0.00%     81.34% # Type of FU issued
system.cpu0.iq.FU_type_0::SimdFloatAdd              0      0.00%     81.34% # Type of FU issued
system.cpu0.iq.FU_type_0::SimdFloatAlu              0      0.00%     81.34% # Type of FU issued
system.cpu0.iq.FU_type_0::SimdFloatCmp              0      0.00%     81.34% # Type of FU issued
system.cpu0.iq.FU_type_0::SimdFloatCvt              0      0.00%     81.34% # Type of FU issued
system.cpu0.iq.FU_type_0::SimdFloatDiv              0      0.00%     81.34% # Type of FU issued
system.cpu0.iq.FU_type_0::SimdFloatMisc             0      0.00%     81.34% # Type of FU issued
system.cpu0.iq.FU_type_0::SimdFloatMult             0      0.00%     81.34% # Type of FU issued
system.cpu0.iq.FU_type_0::SimdFloatMultAcc            0      0.00%     81.34% # Type of FU issued
system.cpu0.iq.FU_type_0::SimdFloatSqrt             0      0.00%     81.34% # Type of FU issued
system.cpu0.iq.FU_type_0::MemRead             1815266      8.48%     89.82% # Type of FU issued
system.cpu0.iq.FU_type_0::MemWrite             894466      4.18%     94.00% # Type of FU issued
system.cpu0.iq.FU_type_0::FloatMemRead         946813      4.42%     98.42% # Type of FU issued
system.cpu0.iq.FU_type_0::FloatMemWrite        338475      1.58%    100.00% # Type of FU issued
system.cpu0.iq.FU_type_0::IprAccess                 0      0.00%    100.00% # Type of FU issued
system.cpu0.iq.FU_type_0::InstPrefetch              0      0.00%    100.00% # Type of FU issued
system.cpu0.iq.FU_type_0::total              21405093                       # Type of FU issued
system.cpu0.iq.rate                          0.860471                       # Inst issue rate
system.cpu0.iq.fu_busy_cnt                     199384                       # FU busy when requested
system.cpu0.iq.fu_busy_rate                  0.009315                       # FU busy rate (busy events/executed inst)
system.cpu0.iq.int_inst_queue_reads          60038303                       # Number of integer instruction queue reads
system.cpu0.iq.int_inst_queue_writes         17839162                       # Number of integer instruction queue writes
system.cpu0.iq.int_inst_queue_wakeup_accesses     17545009                       # Number of integer instruction queue wakeup accesses
system.cpu0.iq.fp_inst_queue_reads            7720920                       # Number of floating instruction queue reads
system.cpu0.iq.fp_inst_queue_writes           3737499                       # Number of floating instruction queue writes
system.cpu0.iq.fp_inst_queue_wakeup_accesses      3730752                       # Number of floating instruction queue wakeup accesses
system.cpu0.iq.vec_inst_queue_reads                 0                       # Number of vector instruction queue reads
system.cpu0.iq.vec_inst_queue_writes                0                       # Number of vector instruction queue writes
system.cpu0.iq.vec_inst_queue_wakeup_accesses            0                       # Number of vector instruction queue wakeup accesses
system.cpu0.iq.int_alu_accesses              17522902                       # Number of integer alu accesses
system.cpu0.iq.fp_alu_accesses                3885766                       # Number of floating point alu accesses
system.cpu0.iq.vec_alu_accesses                     0                       # Number of vector alu accesses
system.cpu0.iew.lsq.thread0.forwLoads          696183                       # Number of loads that had data forwarded from stores
system.cpu0.iew.lsq.thread0.invAddrLoads            0                       # Number of loads ignored due to an invalid address
system.cpu0.iew.lsq.thread0.squashedLoads        26610                       # Number of loads squashed
system.cpu0.iew.lsq.thread0.ignoredResponses           65                       # Number of memory responses ignored because the instruction is squashed
system.cpu0.iew.lsq.thread0.memOrderViolation          254                       # Number of memory ordering violations
system.cpu0.iew.lsq.thread0.squashedStores        17244                       # Number of stores squashed
system.cpu0.iew.lsq.thread0.invAddrSwpfs            0                       # Number of software prefetches ignored due to an invalid address
system.cpu0.iew.lsq.thread0.blockedLoads            0                       # Number of blocked loads due to partial load-store forwarding
system.cpu0.iew.lsq.thread0.rescheduledLoads           72                       # Number of loads that were rescheduled
system.cpu0.iew.lsq.thread0.cacheBlocked       108953                       # Number of times an access to memory failed due to the cache being blocked
system.cpu0.iew.iewIdleCycles                       0                       # Number of cycles IEW is idle
system.cpu0.iew.iewSquashCycles                  8357                       # Number of cycles IEW is squashing
system.cpu0.iew.iewBlockCycles                9971732                       # Number of cycles IEW is blocking
system.cpu0.iew.iewUnblockCycles               691634                       # Number of cycles IEW is unblocking
system.cpu0.iew.iewDispatchedInsts           21371040                       # Number of instructions dispatched to IQ
system.cpu0.iew.iewDispSquashedInsts              442                       # Number of squashed instructions skipped by dispatch
system.cpu0.iew.iewDispLoadInsts              2665907                       # Number of dispatched load instructions
system.cpu0.iew.iewDispStoreInsts             1240837                       # Number of dispatched store instructions
system.cpu0.iew.iewDispNonSpecInsts               599                       # Number of dispatched non-speculative instructions
system.cpu0.iew.iewIQFullEvents                 61030                       # Number of times the IQ has become full, causing a stall
system.cpu0.iew.iewLSQFullEvents               577700                       # Number of times the LSQ has become full, causing a stall
system.cpu0.iew.memOrderViolationEvents           254                       # Number of memory order violations
system.cpu0.iew.predictedTakenIncorrect          1789                       # Number of branches that were predicted taken incorrectly
system.cpu0.iew.predictedNotTakenIncorrect         8752                       # Number of branches that were predicted not taken incorrectly
system.cpu0.iew.branchMispredicts               10541                       # Number of branch mispredicts detected at execute
system.cpu0.iew.iewExecutedInsts             21387119                       # Number of executed instructions
system.cpu0.iew.iewExecLoadInsts              2758767                       # Number of load instructions executed
system.cpu0.iew.iewExecSquashedInsts            17971                       # Number of squashed instructions skipped in execute
system.cpu0.iew.exec_swp                            0                       # number of swp insts executed
system.cpu0.iew.exec_nop                            0                       # number of nop insts executed
system.cpu0.iew.exec_refs                     3989605                       # number of memory reference insts executed
system.cpu0.iew.exec_branches                 1370491                       # Number of branches executed
system.cpu0.iew.exec_stores                   1230838                       # Number of stores executed
system.cpu0.iew.exec_rate                    0.859749                       # Inst execution rate
system.cpu0.iew.wb_sent                      21278943                       # cumulative count of insts sent to commit
system.cpu0.iew.wb_count                     21275761                       # cumulative count of insts written-back
system.cpu0.iew.wb_producers                 16458600                       # num instructions producing a value
system.cpu0.iew.wb_consumers                 37905483                       # num instructions consuming a value
system.cpu0.iew.wb_rate                      0.855272                       # insts written-back per cycle
system.cpu0.iew.wb_fanout                    0.434201                       # average fanout of values written-back
system.cpu0.commit.commitSquashedInsts         205655                       # The number of squashed insts skipped by commit
system.cpu0.commit.commitNonSpecStalls            338                       # The number of times commit has been forced to stall to communicate backwards
system.cpu0.commit.branchMispredicts             8158                       # The number of times a branch was mispredicted
system.cpu0.commit.committed_per_cycle::samples     24714802                       # Number of insts commited each cycle
system.cpu0.commit.committed_per_cycle::mean     0.856390                       # Number of insts commited each cycle
system.cpu0.commit.committed_per_cycle::stdev     2.049104                       # Number of insts commited each cycle
system.cpu0.commit.committed_per_cycle::underflows            0      0.00%      0.00% # Number of insts commited each cycle
system.cpu0.commit.committed_per_cycle::0     18572630     75.15%     75.15% # Number of insts commited each cycle
system.cpu0.commit.committed_per_cycle::1      2754395     11.14%     86.29% # Number of insts commited each cycle
system.cpu0.commit.committed_per_cycle::2       582413      2.36%     88.65% # Number of insts commited each cycle
system.cpu0.commit.committed_per_cycle::3       435215      1.76%     90.41% # Number of insts commited each cycle
system.cpu0.commit.committed_per_cycle::4       342303      1.39%     91.80% # Number of insts commited each cycle
system.cpu0.commit.committed_per_cycle::5       314323      1.27%     93.07% # Number of insts commited each cycle
system.cpu0.commit.committed_per_cycle::6       261600      1.06%     94.13% # Number of insts commited each cycle
system.cpu0.commit.committed_per_cycle::7       185163      0.75%     94.87% # Number of insts commited each cycle
system.cpu0.commit.committed_per_cycle::8      1266760      5.13%    100.00% # Number of insts commited each cycle
system.cpu0.commit.committed_per_cycle::overflows            0      0.00%    100.00% # Number of insts commited each cycle
system.cpu0.commit.committed_per_cycle::min_value            0                       # Number of insts commited each cycle
system.cpu0.commit.committed_per_cycle::max_value            8                       # Number of insts commited each cycle
system.cpu0.commit.committed_per_cycle::total     24714802                       # Number of insts commited each cycle
system.cpu0.commit.committedInsts            10000002                       # Number of instructions committed
system.cpu0.commit.committedOps              21165514                       # Number of ops (including micro ops) committed
system.cpu0.commit.swp_count                        0                       # Number of s/w prefetches committed
system.cpu0.commit.refs                       3862862                       # Number of memory references committed
system.cpu0.commit.loads                      2639269                       # Number of loads committed
system.cpu0.commit.membars                        192                       # Number of memory barriers committed
system.cpu0.commit.branches                   1361626                       # Number of branches committed
system.cpu0.commit.vec_insts                        0                       # Number of committed Vector instructions.
system.cpu0.commit.fp_insts                   3727756                       # Number of committed floating point instructions.
system.cpu0.commit.int_insts                 18424289                       # Number of committed integer instructions.
system.cpu0.commit.function_calls              171764                       # Number of function calls committed.
system.cpu0.commit.op_class_0::No_OpClass       193119      0.91%      0.91% # Class of committed instruction
system.cpu0.commit.op_class_0::IntAlu        13914516     65.74%     66.65% # Class of committed instruction
system.cpu0.commit.op_class_0::IntMult         130180      0.62%     67.27% # Class of committed instruction
system.cpu0.commit.op_class_0::IntDiv         1344252      6.35%     73.62% # Class of committed instruction
system.cpu0.commit.op_class_0::FloatAdd       1720585      8.13%     81.75% # Class of committed instruction
system.cpu0.commit.op_class_0::FloatCmp             0      0.00%     81.75% # Class of committed instruction
system.cpu0.commit.op_class_0::FloatCvt             0      0.00%     81.75% # Class of committed instruction
system.cpu0.commit.op_class_0::FloatMult            0      0.00%     81.75% # Class of committed instruction
system.cpu0.commit.op_class_0::FloatMultAcc            0      0.00%     81.75% # Class of committed instruction
system.cpu0.commit.op_class_0::FloatDiv             0      0.00%     81.75% # Class of committed instruction
system.cpu0.commit.op_class_0::FloatMisc            0      0.00%     81.75% # Class of committed instruction
system.cpu0.commit.op_class_0::FloatSqrt            0      0.00%     81.75% # Class of committed instruction
system.cpu0.commit.op_class_0::SimdAdd              0      0.00%     81.75% # Class of committed instruction
system.cpu0.commit.op_class_0::SimdAddAcc            0      0.00%     81.75% # Class of committed instruction
system.cpu0.commit.op_class_0::SimdAlu              0      0.00%     81.75% # Class of committed instruction
system.cpu0.commit.op_class_0::SimdCmp              0      0.00%     81.75% # Class of committed instruction
system.cpu0.commit.op_class_0::SimdCvt              0      0.00%     81.75% # Class of committed instruction
system.cpu0.commit.op_class_0::SimdMisc             0      0.00%     81.75% # Class of committed instruction
system.cpu0.commit.op_class_0::SimdMult             0      0.00%     81.75% # Class of committed instruction
system.cpu0.commit.op_class_0::SimdMultAcc            0      0.00%     81.75% # Class of committed instruction
system.cpu0.commit.op_class_0::SimdShift            0      0.00%     81.75% # Class of committed instruction
system.cpu0.commit.op_class_0::SimdShiftAcc            0      0.00%     81.75% # Class of committed instruction
system.cpu0.commit.op_class_0::SimdSqrt             0      0.00%     81.75% # Class of committed instruction
system.cpu0.commit.op_class_0::SimdFloatAdd            0      0.00%     81.75% # Class of committed instruction
system.cpu0.commit.op_class_0::SimdFloatAlu            0      0.00%     81.75% # Class of committed instruction
system.cpu0.commit.op_class_0::SimdFloatCmp            0      0.00%     81.75% # Class of committed instruction
system.cpu0.commit.op_class_0::SimdFloatCvt            0      0.00%     81.75% # Class of committed instruction
system.cpu0.commit.op_class_0::SimdFloatDiv            0      0.00%     81.75% # Class of committed instruction
system.cpu0.commit.op_class_0::SimdFloatMisc            0      0.00%     81.75% # Class of committed instruction
system.cpu0.commit.op_class_0::SimdFloatMult            0      0.00%     81.75% # Class of committed instruction
system.cpu0.commit.op_class_0::SimdFloatMultAcc            0      0.00%     81.75% # Class of committed instruction
system.cpu0.commit.op_class_0::SimdFloatSqrt            0      0.00%     81.75% # Class of committed instruction
system.cpu0.commit.op_class_0::MemRead        1796845      8.49%     90.24% # Class of committed instruction
system.cpu0.commit.op_class_0::MemWrite        886603      4.19%     94.43% # Class of committed instruction
system.cpu0.commit.op_class_0::FloatMemRead       842424      3.98%     98.41% # Class of committed instruction
system.cpu0.commit.op_class_0::FloatMemWrite       336990      1.59%    100.00% # Class of committed instruction
system.cpu0.commit.op_class_0::IprAccess            0      0.00%    100.00% # Class of committed instruction
system.cpu0.commit.op_class_0::InstPrefetch            0      0.00%    100.00% # Class of committed instruction
system.cpu0.commit.op_class_0::total         21165514                       # Class of committed instruction
system.cpu0.commit.bw_lim_events              1266760                       # number cycles where commit BW limit reached
system.cpu0.rob.rob_reads                    44819211                       # The number of ROB reads
system.cpu0.rob.rob_writes                   42775485                       # The number of ROB writes
system.cpu0.timesIdled                            815                       # Number of times that the entire CPU went into an idle state and unscheduled itself
system.cpu0.idleCycles                         128903                       # Total number of cycles that the CPU has spent unscheduled due to idling
system.cpu0.committedInsts                   10000002                       # Number of Instructions Simulated
system.cpu0.committedOps                     21165514                       # Number of Ops (including micro ops) Simulated
system.cpu0.cpi                              2.487600                       # CPI: Cycles Per Instruction
system.cpu0.cpi_total                        2.487600                       # CPI: Total CPI of All Threads
system.cpu0.ipc                              0.401994                       # IPC: Instructions Per Cycle
system.cpu0.ipc_total                        0.401994                       # IPC: Total IPC of All Threads
system.cpu0.int_regfile_reads                35576067                       # number of integer regfile reads
system.cpu0.int_regfile_writes               18100354                       # number of integer regfile writes
system.cpu0.fp_regfile_reads                  7000718                       # number of floating regfile reads
system.cpu0.fp_regfile_writes                 3392203                       # number of floating regfile writes
system.cpu0.cc_regfile_reads                 13874160                       # number of cc regfile reads
system.cpu0.cc_regfile_writes                 5806431                       # number of cc regfile writes
system.cpu0.misc_regfile_reads                6571080                       # number of misc regfile reads
system.cpu0.dcache.tags.pwrStateResidencyTicks::UNDEFINED   8283709998                       # Cumulative time (in ticks) in various power states
system.cpu0.dcache.tags.replacements           138668                       # number of replacements
system.cpu0.dcache.tags.tagsinuse          509.869298                       # Cycle average of tags in use
system.cpu0.dcache.tags.total_refs            2706522                       # Total number of references to valid blocks.
system.cpu0.dcache.tags.sampled_refs           139180                       # Sample count of references to valid blocks.
system.cpu0.dcache.tags.avg_refs            19.446199                       # Average number of references to valid blocks.
system.cpu0.dcache.tags.warmup_cycle           150183                       # Cycle when the warmup percentage was hit.
system.cpu0.dcache.tags.occ_blocks::cpu0.data   509.869298                       # Average occupied blocks per requestor
system.cpu0.dcache.tags.occ_percent::cpu0.data     0.995838                       # Average percentage of cache occupancy
system.cpu0.dcache.tags.occ_percent::total     0.995838                       # Average percentage of cache occupancy
system.cpu0.dcache.tags.occ_task_id_blocks::1024          512                       # Occupied blocks per task id
system.cpu0.dcache.tags.age_task_id_blocks_1024::0          181                       # Occupied blocks per task id
system.cpu0.dcache.tags.age_task_id_blocks_1024::1          325                       # Occupied blocks per task id
system.cpu0.dcache.tags.age_task_id_blocks_1024::2            4                       # Occupied blocks per task id
system.cpu0.dcache.tags.age_task_id_blocks_1024::3            2                       # Occupied blocks per task id
system.cpu0.dcache.tags.occ_task_id_percent::1024            1                       # Percentage of cache occupancy per task id
system.cpu0.dcache.tags.tag_accesses         25595028                       # Number of tag accesses
system.cpu0.dcache.tags.data_accesses        25595028                       # Number of data accesses
system.cpu0.dcache.pwrStateResidencyTicks::UNDEFINED   8283709998                       # Cumulative time (in ticks) in various power states
system.cpu0.dcache.ReadReq_hits::cpu0.data      1523059                       # number of ReadReq hits
system.cpu0.dcache.ReadReq_hits::total        1523059                       # number of ReadReq hits
system.cpu0.dcache.WriteReq_hits::cpu0.data      1183439                       # number of WriteReq hits
system.cpu0.dcache.WriteReq_hits::total       1183439                       # number of WriteReq hits
system.cpu0.dcache.demand_hits::cpu0.data      2706498                       # number of demand (read+write) hits
system.cpu0.dcache.demand_hits::total         2706498                       # number of demand (read+write) hits
system.cpu0.dcache.overall_hits::cpu0.data      2706498                       # number of overall hits
system.cpu0.dcache.overall_hits::total        2706498                       # number of overall hits
system.cpu0.dcache.ReadReq_misses::cpu0.data       435322                       # number of ReadReq misses
system.cpu0.dcache.ReadReq_misses::total       435322                       # number of ReadReq misses
system.cpu0.dcache.WriteReq_misses::cpu0.data        40161                       # number of WriteReq misses
system.cpu0.dcache.WriteReq_misses::total        40161                       # number of WriteReq misses
system.cpu0.dcache.demand_misses::cpu0.data       475483                       # number of demand (read+write) misses
system.cpu0.dcache.demand_misses::total        475483                       # number of demand (read+write) misses
system.cpu0.dcache.overall_misses::cpu0.data       475483                       # number of overall misses
system.cpu0.dcache.overall_misses::total       475483                       # number of overall misses
system.cpu0.dcache.ReadReq_miss_latency::cpu0.data  23401116459                       # number of ReadReq miss cycles
system.cpu0.dcache.ReadReq_miss_latency::total  23401116459                       # number of ReadReq miss cycles
system.cpu0.dcache.WriteReq_miss_latency::cpu0.data   2784122915                       # number of WriteReq miss cycles
system.cpu0.dcache.WriteReq_miss_latency::total   2784122915                       # number of WriteReq miss cycles
system.cpu0.dcache.demand_miss_latency::cpu0.data  26185239374                       # number of demand (read+write) miss cycles
system.cpu0.dcache.demand_miss_latency::total  26185239374                       # number of demand (read+write) miss cycles
system.cpu0.dcache.overall_miss_latency::cpu0.data  26185239374                       # number of overall miss cycles
system.cpu0.dcache.overall_miss_latency::total  26185239374                       # number of overall miss cycles
system.cpu0.dcache.ReadReq_accesses::cpu0.data      1958381                       # number of ReadReq accesses(hits+misses)
system.cpu0.dcache.ReadReq_accesses::total      1958381                       # number of ReadReq accesses(hits+misses)
system.cpu0.dcache.WriteReq_accesses::cpu0.data      1223600                       # number of WriteReq accesses(hits+misses)
system.cpu0.dcache.WriteReq_accesses::total      1223600                       # number of WriteReq accesses(hits+misses)
system.cpu0.dcache.demand_accesses::cpu0.data      3181981                       # number of demand (read+write) accesses
system.cpu0.dcache.demand_accesses::total      3181981                       # number of demand (read+write) accesses
system.cpu0.dcache.overall_accesses::cpu0.data      3181981                       # number of overall (read+write) accesses
system.cpu0.dcache.overall_accesses::total      3181981                       # number of overall (read+write) accesses
system.cpu0.dcache.ReadReq_miss_rate::cpu0.data     0.222287                       # miss rate for ReadReq accesses
system.cpu0.dcache.ReadReq_miss_rate::total     0.222287                       # miss rate for ReadReq accesses
system.cpu0.dcache.WriteReq_miss_rate::cpu0.data     0.032822                       # miss rate for WriteReq accesses
system.cpu0.dcache.WriteReq_miss_rate::total     0.032822                       # miss rate for WriteReq accesses
system.cpu0.dcache.demand_miss_rate::cpu0.data     0.149430                       # miss rate for demand accesses
system.cpu0.dcache.demand_miss_rate::total     0.149430                       # miss rate for demand accesses
system.cpu0.dcache.overall_miss_rate::cpu0.data     0.149430                       # miss rate for overall accesses
system.cpu0.dcache.overall_miss_rate::total     0.149430                       # miss rate for overall accesses
system.cpu0.dcache.ReadReq_avg_miss_latency::cpu0.data 53755.878313                       # average ReadReq miss latency
system.cpu0.dcache.ReadReq_avg_miss_latency::total 53755.878313                       # average ReadReq miss latency
system.cpu0.dcache.WriteReq_avg_miss_latency::cpu0.data 69324.043600                       # average WriteReq miss latency
system.cpu0.dcache.WriteReq_avg_miss_latency::total 69324.043600                       # average WriteReq miss latency
system.cpu0.dcache.demand_avg_miss_latency::cpu0.data 55070.821405                       # average overall miss latency
system.cpu0.dcache.demand_avg_miss_latency::total 55070.821405                       # average overall miss latency
system.cpu0.dcache.overall_avg_miss_latency::cpu0.data 55070.821405                       # average overall miss latency
system.cpu0.dcache.overall_avg_miss_latency::total 55070.821405                       # average overall miss latency
system.cpu0.dcache.blocked_cycles::no_mshrs      1081289                       # number of cycles access was blocked
system.cpu0.dcache.blocked_cycles::no_targets            0                       # number of cycles access was blocked
system.cpu0.dcache.blocked::no_mshrs            12086                       # number of cycles access was blocked
system.cpu0.dcache.blocked::no_targets              0                       # number of cycles access was blocked
system.cpu0.dcache.avg_blocked_cycles::no_mshrs    89.466242                       # average number of cycles each access was blocked
system.cpu0.dcache.avg_blocked_cycles::no_targets          nan                       # average number of cycles each access was blocked
system.cpu0.dcache.writebacks::writebacks        42665                       # number of writebacks
system.cpu0.dcache.writebacks::total            42665                       # number of writebacks
system.cpu0.dcache.ReadReq_mshr_hits::cpu0.data       336277                       # number of ReadReq MSHR hits
system.cpu0.dcache.ReadReq_mshr_hits::total       336277                       # number of ReadReq MSHR hits
system.cpu0.dcache.WriteReq_mshr_hits::cpu0.data            5                       # number of WriteReq MSHR hits
system.cpu0.dcache.WriteReq_mshr_hits::total            5                       # number of WriteReq MSHR hits
system.cpu0.dcache.demand_mshr_hits::cpu0.data       336282                       # number of demand (read+write) MSHR hits
system.cpu0.dcache.demand_mshr_hits::total       336282                       # number of demand (read+write) MSHR hits
system.cpu0.dcache.overall_mshr_hits::cpu0.data       336282                       # number of overall MSHR hits
system.cpu0.dcache.overall_mshr_hits::total       336282                       # number of overall MSHR hits
system.cpu0.dcache.ReadReq_mshr_misses::cpu0.data        99045                       # number of ReadReq MSHR misses
system.cpu0.dcache.ReadReq_mshr_misses::total        99045                       # number of ReadReq MSHR misses
system.cpu0.dcache.WriteReq_mshr_misses::cpu0.data        40156                       # number of WriteReq MSHR misses
system.cpu0.dcache.WriteReq_mshr_misses::total        40156                       # number of WriteReq MSHR misses
system.cpu0.dcache.demand_mshr_misses::cpu0.data       139201                       # number of demand (read+write) MSHR misses
system.cpu0.dcache.demand_mshr_misses::total       139201                       # number of demand (read+write) MSHR misses
system.cpu0.dcache.overall_mshr_misses::cpu0.data       139201                       # number of overall MSHR misses
system.cpu0.dcache.overall_mshr_misses::total       139201                       # number of overall MSHR misses
system.cpu0.dcache.ReadReq_mshr_miss_latency::cpu0.data   6359679954                       # number of ReadReq MSHR miss cycles
system.cpu0.dcache.ReadReq_mshr_miss_latency::total   6359679954                       # number of ReadReq MSHR miss cycles
system.cpu0.dcache.WriteReq_mshr_miss_latency::cpu0.data   2757112287                       # number of WriteReq MSHR miss cycles
system.cpu0.dcache.WriteReq_mshr_miss_latency::total   2757112287                       # number of WriteReq MSHR miss cycles
system.cpu0.dcache.demand_mshr_miss_latency::cpu0.data   9116792241                       # number of demand (read+write) MSHR miss cycles
system.cpu0.dcache.demand_mshr_miss_latency::total   9116792241                       # number of demand (read+write) MSHR miss cycles
system.cpu0.dcache.overall_mshr_miss_latency::cpu0.data   9116792241                       # number of overall MSHR miss cycles
system.cpu0.dcache.overall_mshr_miss_latency::total   9116792241                       # number of overall MSHR miss cycles
system.cpu0.dcache.ReadReq_mshr_miss_rate::cpu0.data     0.050575                       # mshr miss rate for ReadReq accesses
system.cpu0.dcache.ReadReq_mshr_miss_rate::total     0.050575                       # mshr miss rate for ReadReq accesses
system.cpu0.dcache.WriteReq_mshr_miss_rate::cpu0.data     0.032818                       # mshr miss rate for WriteReq accesses
system.cpu0.dcache.WriteReq_mshr_miss_rate::total     0.032818                       # mshr miss rate for WriteReq accesses
system.cpu0.dcache.demand_mshr_miss_rate::cpu0.data     0.043747                       # mshr miss rate for demand accesses
system.cpu0.dcache.demand_mshr_miss_rate::total     0.043747                       # mshr miss rate for demand accesses
system.cpu0.dcache.overall_mshr_miss_rate::cpu0.data     0.043747                       # mshr miss rate for overall accesses
system.cpu0.dcache.overall_mshr_miss_rate::total     0.043747                       # mshr miss rate for overall accesses
system.cpu0.dcache.ReadReq_avg_mshr_miss_latency::cpu0.data 64210.005089                       # average ReadReq mshr miss latency
system.cpu0.dcache.ReadReq_avg_mshr_miss_latency::total 64210.005089                       # average ReadReq mshr miss latency
system.cpu0.dcache.WriteReq_avg_mshr_miss_latency::cpu0.data 68660.033046                       # average WriteReq mshr miss latency
system.cpu0.dcache.WriteReq_avg_mshr_miss_latency::total 68660.033046                       # average WriteReq mshr miss latency
system.cpu0.dcache.demand_avg_mshr_miss_latency::cpu0.data 65493.726633                       # average overall mshr miss latency
system.cpu0.dcache.demand_avg_mshr_miss_latency::total 65493.726633                       # average overall mshr miss latency
system.cpu0.dcache.overall_avg_mshr_miss_latency::cpu0.data 65493.726633                       # average overall mshr miss latency
system.cpu0.dcache.overall_avg_mshr_miss_latency::total 65493.726633                       # average overall mshr miss latency
system.cpu0.dtb_walker_cache.tags.pwrStateResidencyTicks::UNDEFINED   8283709998                       # Cumulative time (in ticks) in various power states
system.cpu0.dtb_walker_cache.tags.replacements            0                       # number of replacements
system.cpu0.dtb_walker_cache.tags.tagsinuse            0                       # Cycle average of tags in use
system.cpu0.dtb_walker_cache.tags.total_refs            0                       # Total number of references to valid blocks.
system.cpu0.dtb_walker_cache.tags.sampled_refs            0                       # Sample count of references to valid blocks.
system.cpu0.dtb_walker_cache.tags.avg_refs          nan                       # Average number of references to valid blocks.
system.cpu0.dtb_walker_cache.tags.warmup_cycle            0                       # Cycle when the warmup percentage was hit.
system.cpu0.dtb_walker_cache.tags.tag_accesses            0                       # Number of tag accesses
system.cpu0.dtb_walker_cache.tags.data_accesses            0                       # Number of data accesses
system.cpu0.dtb_walker_cache.pwrStateResidencyTicks::UNDEFINED   8283709998                       # Cumulative time (in ticks) in various power states
system.cpu0.dtb_walker_cache.blocked_cycles::no_mshrs            0                       # number of cycles access was blocked
system.cpu0.dtb_walker_cache.blocked_cycles::no_targets            0                       # number of cycles access was blocked
system.cpu0.dtb_walker_cache.blocked::no_mshrs            0                       # number of cycles access was blocked
system.cpu0.dtb_walker_cache.blocked::no_targets            0                       # number of cycles access was blocked
system.cpu0.dtb_walker_cache.avg_blocked_cycles::no_mshrs          nan                       # average number of cycles each access was blocked
system.cpu0.dtb_walker_cache.avg_blocked_cycles::no_targets          nan                       # average number of cycles each access was blocked
system.cpu0.icache.tags.pwrStateResidencyTicks::UNDEFINED   8283709998                       # Cumulative time (in ticks) in various power states
system.cpu0.icache.tags.replacements             1784                       # number of replacements
system.cpu0.icache.tags.tagsinuse          511.008302                       # Cycle average of tags in use
system.cpu0.icache.tags.total_refs            1336627                       # Total number of references to valid blocks.
system.cpu0.icache.tags.sampled_refs             2296                       # Sample count of references to valid blocks.
system.cpu0.icache.tags.avg_refs           582.154617                       # Average number of references to valid blocks.
system.cpu0.icache.tags.warmup_cycle            76257                       # Cycle when the warmup percentage was hit.
system.cpu0.icache.tags.occ_blocks::cpu0.inst   511.008302                       # Average occupied blocks per requestor
system.cpu0.icache.tags.occ_percent::cpu0.inst     0.998063                       # Average percentage of cache occupancy
system.cpu0.icache.tags.occ_percent::total     0.998063                       # Average percentage of cache occupancy
system.cpu0.icache.tags.occ_task_id_blocks::1024          512                       # Occupied blocks per task id
system.cpu0.icache.tags.age_task_id_blocks_1024::2            1                       # Occupied blocks per task id
system.cpu0.icache.tags.age_task_id_blocks_1024::3          511                       # Occupied blocks per task id
system.cpu0.icache.tags.occ_task_id_percent::1024            1                       # Percentage of cache occupancy per task id
system.cpu0.icache.tags.tag_accesses         10717368                       # Number of tag accesses
system.cpu0.icache.tags.data_accesses        10717368                       # Number of data accesses
system.cpu0.icache.pwrStateResidencyTicks::UNDEFINED   8283709998                       # Cumulative time (in ticks) in various power states
system.cpu0.icache.ReadReq_hits::cpu0.inst      1336627                       # number of ReadReq hits
system.cpu0.icache.ReadReq_hits::total        1336627                       # number of ReadReq hits
system.cpu0.icache.demand_hits::cpu0.inst      1336627                       # number of demand (read+write) hits
system.cpu0.icache.demand_hits::total         1336627                       # number of demand (read+write) hits
system.cpu0.icache.overall_hits::cpu0.inst      1336627                       # number of overall hits
system.cpu0.icache.overall_hits::total        1336627                       # number of overall hits
system.cpu0.icache.ReadReq_misses::cpu0.inst         2757                       # number of ReadReq misses
system.cpu0.icache.ReadReq_misses::total         2757                       # number of ReadReq misses
system.cpu0.icache.demand_misses::cpu0.inst         2757                       # number of demand (read+write) misses
system.cpu0.icache.demand_misses::total          2757                       # number of demand (read+write) misses
system.cpu0.icache.overall_misses::cpu0.inst         2757                       # number of overall misses
system.cpu0.icache.overall_misses::total         2757                       # number of overall misses
system.cpu0.icache.ReadReq_miss_latency::cpu0.inst    130322211                       # number of ReadReq miss cycles
system.cpu0.icache.ReadReq_miss_latency::total    130322211                       # number of ReadReq miss cycles
system.cpu0.icache.demand_miss_latency::cpu0.inst    130322211                       # number of demand (read+write) miss cycles
system.cpu0.icache.demand_miss_latency::total    130322211                       # number of demand (read+write) miss cycles
system.cpu0.icache.overall_miss_latency::cpu0.inst    130322211                       # number of overall miss cycles
system.cpu0.icache.overall_miss_latency::total    130322211                       # number of overall miss cycles
system.cpu0.icache.ReadReq_accesses::cpu0.inst      1339384                       # number of ReadReq accesses(hits+misses)
system.cpu0.icache.ReadReq_accesses::total      1339384                       # number of ReadReq accesses(hits+misses)
system.cpu0.icache.demand_accesses::cpu0.inst      1339384                       # number of demand (read+write) accesses
system.cpu0.icache.demand_accesses::total      1339384                       # number of demand (read+write) accesses
system.cpu0.icache.overall_accesses::cpu0.inst      1339384                       # number of overall (read+write) accesses
system.cpu0.icache.overall_accesses::total      1339384                       # number of overall (read+write) accesses
system.cpu0.icache.ReadReq_miss_rate::cpu0.inst     0.002058                       # miss rate for ReadReq accesses
system.cpu0.icache.ReadReq_miss_rate::total     0.002058                       # miss rate for ReadReq accesses
system.cpu0.icache.demand_miss_rate::cpu0.inst     0.002058                       # miss rate for demand accesses
system.cpu0.icache.demand_miss_rate::total     0.002058                       # miss rate for demand accesses
system.cpu0.icache.overall_miss_rate::cpu0.inst     0.002058                       # miss rate for overall accesses
system.cpu0.icache.overall_miss_rate::total     0.002058                       # miss rate for overall accesses
system.cpu0.icache.ReadReq_avg_miss_latency::cpu0.inst 47269.572361                       # average ReadReq miss latency
system.cpu0.icache.ReadReq_avg_miss_latency::total 47269.572361                       # average ReadReq miss latency
system.cpu0.icache.demand_avg_miss_latency::cpu0.inst 47269.572361                       # average overall miss latency
system.cpu0.icache.demand_avg_miss_latency::total 47269.572361                       # average overall miss latency
system.cpu0.icache.overall_avg_miss_latency::cpu0.inst 47269.572361                       # average overall miss latency
system.cpu0.icache.overall_avg_miss_latency::total 47269.572361                       # average overall miss latency
system.cpu0.icache.blocked_cycles::no_mshrs         2311                       # number of cycles access was blocked
system.cpu0.icache.blocked_cycles::no_targets            0                       # number of cycles access was blocked
system.cpu0.icache.blocked::no_mshrs               27                       # number of cycles access was blocked
system.cpu0.icache.blocked::no_targets              0                       # number of cycles access was blocked
system.cpu0.icache.avg_blocked_cycles::no_mshrs    85.592593                       # average number of cycles each access was blocked
system.cpu0.icache.avg_blocked_cycles::no_targets          nan                       # average number of cycles each access was blocked
system.cpu0.icache.writebacks::writebacks         1784                       # number of writebacks
system.cpu0.icache.writebacks::total             1784                       # number of writebacks
system.cpu0.icache.ReadReq_mshr_hits::cpu0.inst          461                       # number of ReadReq MSHR hits
system.cpu0.icache.ReadReq_mshr_hits::total          461                       # number of ReadReq MSHR hits
system.cpu0.icache.demand_mshr_hits::cpu0.inst          461                       # number of demand (read+write) MSHR hits
system.cpu0.icache.demand_mshr_hits::total          461                       # number of demand (read+write) MSHR hits
system.cpu0.icache.overall_mshr_hits::cpu0.inst          461                       # number of overall MSHR hits
system.cpu0.icache.overall_mshr_hits::total          461                       # number of overall MSHR hits
system.cpu0.icache.ReadReq_mshr_misses::cpu0.inst         2296                       # number of ReadReq MSHR misses
system.cpu0.icache.ReadReq_mshr_misses::total         2296                       # number of ReadReq MSHR misses
system.cpu0.icache.demand_mshr_misses::cpu0.inst         2296                       # number of demand (read+write) MSHR misses
system.cpu0.icache.demand_mshr_misses::total         2296                       # number of demand (read+write) MSHR misses
system.cpu0.icache.overall_mshr_misses::cpu0.inst         2296                       # number of overall MSHR misses
system.cpu0.icache.overall_mshr_misses::total         2296                       # number of overall MSHR misses
system.cpu0.icache.ReadReq_mshr_miss_latency::cpu0.inst    104380513                       # number of ReadReq MSHR miss cycles
system.cpu0.icache.ReadReq_mshr_miss_latency::total    104380513                       # number of ReadReq MSHR miss cycles
system.cpu0.icache.demand_mshr_miss_latency::cpu0.inst    104380513                       # number of demand (read+write) MSHR miss cycles
system.cpu0.icache.demand_mshr_miss_latency::total    104380513                       # number of demand (read+write) MSHR miss cycles
system.cpu0.icache.overall_mshr_miss_latency::cpu0.inst    104380513                       # number of overall MSHR miss cycles
system.cpu0.icache.overall_mshr_miss_latency::total    104380513                       # number of overall MSHR miss cycles
system.cpu0.icache.ReadReq_mshr_miss_rate::cpu0.inst     0.001714                       # mshr miss rate for ReadReq accesses
system.cpu0.icache.ReadReq_mshr_miss_rate::total     0.001714                       # mshr miss rate for ReadReq accesses
system.cpu0.icache.demand_mshr_miss_rate::cpu0.inst     0.001714                       # mshr miss rate for demand accesses
system.cpu0.icache.demand_mshr_miss_rate::total     0.001714                       # mshr miss rate for demand accesses
system.cpu0.icache.overall_mshr_miss_rate::cpu0.inst     0.001714                       # mshr miss rate for overall accesses
system.cpu0.icache.overall_mshr_miss_rate::total     0.001714                       # mshr miss rate for overall accesses
system.cpu0.icache.ReadReq_avg_mshr_miss_latency::cpu0.inst 45461.895906                       # average ReadReq mshr miss latency
system.cpu0.icache.ReadReq_avg_mshr_miss_latency::total 45461.895906                       # average ReadReq mshr miss latency
system.cpu0.icache.demand_avg_mshr_miss_latency::cpu0.inst 45461.895906                       # average overall mshr miss latency
system.cpu0.icache.demand_avg_mshr_miss_latency::total 45461.895906                       # average overall mshr miss latency
system.cpu0.icache.overall_avg_mshr_miss_latency::cpu0.inst 45461.895906                       # average overall mshr miss latency
system.cpu0.icache.overall_avg_mshr_miss_latency::total 45461.895906                       # average overall mshr miss latency
system.cpu0.itb_walker_cache.tags.pwrStateResidencyTicks::UNDEFINED   8283709998                       # Cumulative time (in ticks) in various power states
system.cpu0.itb_walker_cache.tags.replacements            0                       # number of replacements
system.cpu0.itb_walker_cache.tags.tagsinuse            0                       # Cycle average of tags in use
system.cpu0.itb_walker_cache.tags.total_refs            0                       # Total number of references to valid blocks.
system.cpu0.itb_walker_cache.tags.sampled_refs            0                       # Sample count of references to valid blocks.
system.cpu0.itb_walker_cache.tags.avg_refs          nan                       # Average number of references to valid blocks.
system.cpu0.itb_walker_cache.tags.warmup_cycle            0                       # Cycle when the warmup percentage was hit.
system.cpu0.itb_walker_cache.tags.tag_accesses            0                       # Number of tag accesses
system.cpu0.itb_walker_cache.tags.data_accesses            0                       # Number of data accesses
system.cpu0.itb_walker_cache.pwrStateResidencyTicks::UNDEFINED   8283709998                       # Cumulative time (in ticks) in various power states
system.cpu0.itb_walker_cache.blocked_cycles::no_mshrs            0                       # number of cycles access was blocked
system.cpu0.itb_walker_cache.blocked_cycles::no_targets            0                       # number of cycles access was blocked
system.cpu0.itb_walker_cache.blocked::no_mshrs            0                       # number of cycles access was blocked
system.cpu0.itb_walker_cache.blocked::no_targets            0                       # number of cycles access was blocked
system.cpu0.itb_walker_cache.avg_blocked_cycles::no_mshrs          nan                       # average number of cycles each access was blocked
system.cpu0.itb_walker_cache.avg_blocked_cycles::no_targets          nan                       # average number of cycles each access was blocked
system.cpu0.l2cache.tags.pwrStateResidencyTicks::UNDEFINED   8283709998                       # Cumulative time (in ticks) in various power states
system.cpu0.l2cache.tags.replacements          133700                       # number of replacements
system.cpu0.l2cache.tags.tagsinuse        4033.117124                       # Cycle average of tags in use
system.cpu0.l2cache.tags.total_refs            144123                       # Total number of references to valid blocks.
system.cpu0.l2cache.tags.sampled_refs          137796                       # Sample count of references to valid blocks.
system.cpu0.l2cache.tags.avg_refs            1.045916                       # Average number of references to valid blocks.
system.cpu0.l2cache.tags.warmup_cycle           73000                       # Cycle when the warmup percentage was hit.
system.cpu0.l2cache.tags.occ_blocks::writebacks   137.196054                       # Average occupied blocks per requestor
system.cpu0.l2cache.tags.occ_blocks::cpu0.inst   204.056558                       # Average occupied blocks per requestor
system.cpu0.l2cache.tags.occ_blocks::cpu0.data  3691.864512                       # Average occupied blocks per requestor
system.cpu0.l2cache.tags.occ_percent::writebacks     0.033495                       # Average percentage of cache occupancy
system.cpu0.l2cache.tags.occ_percent::cpu0.inst     0.049818                       # Average percentage of cache occupancy
system.cpu0.l2cache.tags.occ_percent::cpu0.data     0.901334                       # Average percentage of cache occupancy
system.cpu0.l2cache.tags.occ_percent::total     0.984648                       # Average percentage of cache occupancy
system.cpu0.l2cache.tags.occ_task_id_blocks::1024         4096                       # Occupied blocks per task id
system.cpu0.l2cache.tags.age_task_id_blocks_1024::0          284                       # Occupied blocks per task id
system.cpu0.l2cache.tags.age_task_id_blocks_1024::1         1103                       # Occupied blocks per task id
system.cpu0.l2cache.tags.age_task_id_blocks_1024::2         2565                       # Occupied blocks per task id
system.cpu0.l2cache.tags.age_task_id_blocks_1024::3          144                       # Occupied blocks per task id
system.cpu0.l2cache.tags.occ_task_id_percent::1024            1                       # Percentage of cache occupancy per task id
system.cpu0.l2cache.tags.tag_accesses         1265544                       # Number of tag accesses
system.cpu0.l2cache.tags.data_accesses        1265544                       # Number of data accesses
system.cpu0.l2cache.pwrStateResidencyTicks::UNDEFINED   8283709998                       # Cumulative time (in ticks) in various power states
system.cpu0.l2cache.WritebackDirty_hits::writebacks        42665                       # number of WritebackDirty hits
system.cpu0.l2cache.WritebackDirty_hits::total        42665                       # number of WritebackDirty hits
system.cpu0.l2cache.WritebackClean_hits::writebacks         1780                       # number of WritebackClean hits
system.cpu0.l2cache.WritebackClean_hits::total         1780                       # number of WritebackClean hits
system.cpu0.l2cache.UpgradeReq_hits::cpu0.data           19                       # number of UpgradeReq hits
system.cpu0.l2cache.UpgradeReq_hits::total           19                       # number of UpgradeReq hits
system.cpu0.l2cache.ReadExReq_hits::cpu0.data          494                       # number of ReadExReq hits
system.cpu0.l2cache.ReadExReq_hits::total          494                       # number of ReadExReq hits
system.cpu0.l2cache.ReadCleanReq_hits::cpu0.inst          889                       # number of ReadCleanReq hits
system.cpu0.l2cache.ReadCleanReq_hits::total          889                       # number of ReadCleanReq hits
system.cpu0.l2cache.ReadSharedReq_hits::cpu0.data         2834                       # number of ReadSharedReq hits
system.cpu0.l2cache.ReadSharedReq_hits::total         2834                       # number of ReadSharedReq hits
system.cpu0.l2cache.demand_hits::cpu0.inst          889                       # number of demand (read+write) hits
[...]
system.l3.demand_mshr_miss_latency::cpu2.inst     74560275                       # number of demand (read+write) MSHR miss cycles
system.l3.demand_mshr_miss_latency::cpu2.data   7024922044                       # number of demand (read+write) MSHR miss cycles
system.l3.demand_mshr_miss_latency::cpu3.inst     74063754                       # number of demand (read+write) MSHR miss cycles
system.l3.demand_mshr_miss_latency::cpu3.data   7015654896                       # number of demand (read+write) MSHR miss cycles
system.l3.demand_mshr_miss_latency::total  28421793952                       # number of demand (read+write) MSHR miss cycles
system.l3.overall_mshr_miss_latency::cpu0.inst     79159165                       # number of overall MSHR miss cycles
system.l3.overall_mshr_miss_latency::cpu0.data   7005720700                       # number of overall MSHR miss cycles
system.l3.overall_mshr_miss_latency::cpu1.inst     72530357                       # number of overall MSHR miss cycles
system.l3.overall_mshr_miss_latency::cpu1.data   7075182761                       # number of overall MSHR miss cycles
system.l3.overall_mshr_miss_latency::cpu2.inst     74560275                       # number of overall MSHR miss cycles
system.l3.overall_mshr_miss_latency::cpu2.data   7024922044                       # number of overall MSHR miss cycles
system.l3.overall_mshr_miss_latency::cpu3.inst     74063754                       # number of overall MSHR miss cycles
system.l3.overall_mshr_miss_latency::cpu3.data   7015654896                       # number of overall MSHR miss cycles
system.l3.overall_mshr_miss_latency::total  28421793952                       # number of overall MSHR miss cycles
system.l3.CleanEvict_mshr_miss_rate::writebacks          inf                       # mshr miss rate for CleanEvict accesses
system.l3.CleanEvict_mshr_miss_rate::total          inf                       # mshr miss rate for CleanEvict accesses
system.l3.ReadExReq_mshr_miss_rate::cpu0.data     0.899175                       # mshr miss rate for ReadExReq accesses
system.l3.ReadExReq_mshr_miss_rate::cpu1.data     0.913498                       # mshr miss rate for ReadExReq accesses
system.l3.ReadExReq_mshr_miss_rate::cpu2.data     0.926445                       # mshr miss rate for ReadExReq accesses
system.l3.ReadExReq_mshr_miss_rate::cpu3.data     0.907715                       # mshr miss rate for ReadExReq accesses
system.l3.ReadExReq_mshr_miss_rate::total     0.911600                       # mshr miss rate for ReadExReq accesses
system.l3.ReadSharedReq_mshr_miss_rate::cpu0.inst     0.970860                       # mshr miss rate for ReadSharedReq accesses
system.l3.ReadSharedReq_mshr_miss_rate::cpu0.data     0.867510                       # mshr miss rate for ReadSharedReq accesses
system.l3.ReadSharedReq_mshr_miss_rate::cpu1.inst     0.965174                       # mshr miss rate for ReadSharedReq accesses
system.l3.ReadSharedReq_mshr_miss_rate::cpu1.data     0.876062                       # mshr miss rate for ReadSharedReq accesses
system.l3.ReadSharedReq_mshr_miss_rate::cpu2.inst     0.969176                       # mshr miss rate for ReadSharedReq accesses
system.l3.ReadSharedReq_mshr_miss_rate::cpu2.data     0.886080                       # mshr miss rate for ReadSharedReq accesses
system.l3.ReadSharedReq_mshr_miss_rate::cpu3.inst     0.966429                       # mshr miss rate for ReadSharedReq accesses
system.l3.ReadSharedReq_mshr_miss_rate::cpu3.data     0.876325                       # mshr miss rate for ReadSharedReq accesses
system.l3.ReadSharedReq_mshr_miss_rate::total     0.877781                       # mshr miss rate for ReadSharedReq accesses
system.l3.demand_mshr_miss_rate::cpu0.inst     0.970860                       # mshr miss rate for demand accesses
system.l3.demand_mshr_miss_rate::cpu0.data     0.876750                       # mshr miss rate for demand accesses
system.l3.demand_mshr_miss_rate::cpu1.inst     0.965174                       # mshr miss rate for demand accesses
system.l3.demand_mshr_miss_rate::cpu1.data     0.886959                       # mshr miss rate for demand accesses
system.l3.demand_mshr_miss_rate::cpu2.inst     0.969176                       # mshr miss rate for demand accesses
system.l3.demand_mshr_miss_rate::cpu2.data     0.897756                       # mshr miss rate for demand accesses
system.l3.demand_mshr_miss_rate::cpu3.inst     0.966429                       # mshr miss rate for demand accesses
system.l3.demand_mshr_miss_rate::cpu3.data     0.885497                       # mshr miss rate for demand accesses
system.l3.demand_mshr_miss_rate::total       0.887523                       # mshr miss rate for demand accesses
system.l3.overall_mshr_miss_rate::cpu0.inst     0.970860                       # mshr miss rate for overall accesses
system.l3.overall_mshr_miss_rate::cpu0.data     0.876750                       # mshr miss rate for overall accesses
system.l3.overall_mshr_miss_rate::cpu1.inst     0.965174                       # mshr miss rate for overall accesses
system.l3.overall_mshr_miss_rate::cpu1.data     0.886959                       # mshr miss rate for overall accesses
system.l3.overall_mshr_miss_rate::cpu2.inst     0.969176                       # mshr miss rate for overall accesses
system.l3.overall_mshr_miss_rate::cpu2.data     0.897756                       # mshr miss rate for overall accesses
system.l3.overall_mshr_miss_rate::cpu3.inst     0.966429                       # mshr miss rate for overall accesses
system.l3.overall_mshr_miss_rate::cpu3.data     0.885497                       # mshr miss rate for overall accesses
system.l3.overall_mshr_miss_rate::total      0.887523                       # mshr miss rate for overall accesses
system.l3.ReadExReq_avg_mshr_miss_latency::cpu0.data 60348.138950                       # average ReadExReq mshr miss latency
system.l3.ReadExReq_avg_mshr_miss_latency::cpu1.data 60559.163734                       # average ReadExReq mshr miss latency
system.l3.ReadExReq_avg_mshr_miss_latency::cpu2.data 60882.996801                       # average ReadExReq mshr miss latency
system.l3.ReadExReq_avg_mshr_miss_latency::cpu3.data 60359.757340                       # average ReadExReq mshr miss latency
system.l3.ReadExReq_avg_mshr_miss_latency::total 60537.502936                       # average ReadExReq mshr miss latency
system.l3.ReadSharedReq_avg_mshr_miss_latency::cpu0.inst 57949.608346                       # average ReadSharedReq mshr miss latency
system.l3.ReadSharedReq_avg_mshr_miss_latency::cpu0.data 58163.411039                       # average ReadSharedReq mshr miss latency
system.l3.ReadSharedReq_avg_mshr_miss_latency::cpu1.inst 53409.688513                       # average ReadSharedReq mshr miss latency
system.l3.ReadSharedReq_avg_mshr_miss_latency::cpu1.data 59090.571727                       # average ReadSharedReq mshr miss latency
system.l3.ReadSharedReq_avg_mshr_miss_latency::cpu2.inst 55148.132396                       # average ReadSharedReq mshr miss latency
system.l3.ReadSharedReq_avg_mshr_miss_latency::cpu2.data 57984.202128                       # average ReadSharedReq mshr miss latency
system.l3.ReadSharedReq_avg_mshr_miss_latency::cpu3.inst 54740.394678                       # average ReadSharedReq mshr miss latency
system.l3.ReadSharedReq_avg_mshr_miss_latency::cpu3.data 58391.980185                       # average ReadSharedReq mshr miss latency
system.l3.ReadSharedReq_avg_mshr_miss_latency::total 58357.232697                       # average ReadSharedReq mshr miss latency
system.l3.demand_avg_mshr_miss_latency::cpu0.inst 57949.608346                       # average overall mshr miss latency
system.l3.demand_avg_mshr_miss_latency::cpu0.data 58817.233650                       # average overall mshr miss latency
system.l3.demand_avg_mshr_miss_latency::cpu1.inst 53409.688513                       # average overall mshr miss latency
system.l3.demand_avg_mshr_miss_latency::cpu1.data 59530.856473                       # average overall mshr miss latency
system.l3.demand_avg_mshr_miss_latency::cpu2.inst 55148.132396                       # average overall mshr miss latency
system.l3.demand_avg_mshr_miss_latency::cpu2.data 58849.486425                       # average overall mshr miss latency
system.l3.demand_avg_mshr_miss_latency::cpu3.inst 54740.394678                       # average overall mshr miss latency
system.l3.demand_avg_mshr_miss_latency::cpu3.data 58981.352165                       # average overall mshr miss latency
system.l3.demand_avg_mshr_miss_latency::total 59002.366489                       # average overall mshr miss latency
system.l3.overall_avg_mshr_miss_latency::cpu0.inst 57949.608346                       # average overall mshr miss latency
system.l3.overall_avg_mshr_miss_latency::cpu0.data 58817.233650                       # average overall mshr miss latency
system.l3.overall_avg_mshr_miss_latency::cpu1.inst 53409.688513                       # average overall mshr miss latency
system.l3.overall_avg_mshr_miss_latency::cpu1.data 59530.856473                       # average overall mshr miss latency
system.l3.overall_avg_mshr_miss_latency::cpu2.inst 55148.132396                       # average overall mshr miss latency
system.l3.overall_avg_mshr_miss_latency::cpu2.data 58849.486425                       # average overall mshr miss latency
system.l3.overall_avg_mshr_miss_latency::cpu3.inst 54740.394678                       # average overall mshr miss latency
system.l3.overall_avg_mshr_miss_latency::cpu3.data 58981.352165                       # average overall mshr miss latency
system.l3.overall_avg_mshr_miss_latency::total 59002.366489                       # average overall mshr miss latency
system.membus.snoop_filter.tot_requests        883381                       # Total number of requests made to the snoop filter.
system.membus.snoop_filter.hit_single_requests       401677                       # Number of requests hitting in the snoop filter with a single holder of the requested data.
system.membus.snoop_filter.hit_multi_requests            0                       # Number of requests hitting in the snoop filter with multiple (>1) holders of the requested data.
system.membus.snoop_filter.tot_snoops               0                       # Total number of snoops made to the snoop filter.
system.membus.snoop_filter.hit_single_snoops            0                       # Number of snoops hitting in the snoop filter with a single holder of the requested data.
system.membus.snoop_filter.hit_multi_snoops            0                       # Number of snoops hitting in the snoop filter with multiple (>1) holders of the requested data.
system.membus.pwrStateResidencyTicks::UNDEFINED   8283709998                       # Cumulative time (in ticks) in various power states
system.membus.trans_dist::ReadResp             339165                       # Transaction distribution
system.membus.trans_dist::WritebackDirty        99377                       # Transaction distribution
system.membus.trans_dist::CleanEvict           302298                       # Transaction distribution
system.membus.trans_dist::ReadExReq            142535                       # Transaction distribution
system.membus.trans_dist::ReadExResp           142535                       # Transaction distribution
system.membus.trans_dist::ReadSharedReq        339171                       # Transaction distribution
system.membus.pkt_count_system.l3.mem_side::system.mem_ctrls.port      1365081                       # Packet count per connected master and slave (bytes)
system.membus.pkt_count_system.l3.mem_side::total      1365081                       # Packet count per connected master and slave (bytes)
system.membus.pkt_count::total                1365081                       # Packet count per connected master and slave (bytes)
system.membus.pkt_size_system.l3.mem_side::system.mem_ctrls.port     37188928                       # Cumulative packet size per connected master and slave (bytes)
system.membus.pkt_size_system.l3.mem_side::total     37188928                       # Cumulative packet size per connected master and slave (bytes)
system.membus.pkt_size::total                37188928                       # Cumulative packet size per connected master and slave (bytes)
system.membus.snoops                                0                       # Total snoops (count)
system.membus.snoopTraffic                          0                       # Total snoop traffic (bytes)
system.membus.snoop_fanout::samples            481706                       # Request fanout histogram
system.membus.snoop_fanout::mean                    0                       # Request fanout histogram
system.membus.snoop_fanout::stdev                   0                       # Request fanout histogram
system.membus.snoop_fanout::underflows              0      0.00%      0.00% # Request fanout histogram
system.membus.snoop_fanout::0                  481706    100.00%    100.00% # Request fanout histogram
system.membus.snoop_fanout::1                       0      0.00%    100.00% # Request fanout histogram
system.membus.snoop_fanout::overflows               0      0.00%    100.00% # Request fanout histogram
system.membus.snoop_fanout::min_value               0                       # Request fanout histogram
system.membus.snoop_fanout::max_value               0                       # Request fanout histogram
system.membus.snoop_fanout::total              481706                       # Request fanout histogram
system.membus.reqLayer8.occupancy          1458755891                       # Layer occupancy (ticks)
system.membus.reqLayer8.utilization              17.6                       # Layer utilization (%)
system.membus.respLayer1.occupancy         2553204852                       # Layer occupancy (ticks)
system.membus.respLayer1.utilization             30.8                       # Layer utilization (%)
system.tol3bus.snoop_filter.tot_requests      1067058                       # Total number of requests made to the snoop filter.
system.tol3bus.snoop_filter.hit_single_requests       524313                       # Number of requests hitting in the snoop filter with a single holder of the requested data.
system.tol3bus.snoop_filter.hit_multi_requests            0                       # Number of requests hitting in the snoop filter with multiple (>1) holders of the requested data.
system.tol3bus.snoop_filter.tot_snoops            908                       # Total number of snoops made to the snoop filter.
system.tol3bus.snoop_filter.hit_single_snoops          908                       # Number of snoops hitting in the snoop filter with a single holder of the requested data.
system.tol3bus.snoop_filter.hit_multi_snoops            0                       # Number of snoops hitting in the snoop filter with multiple (>1) holders of the requested data.
system.tol3bus.pwrStateResidencyTicks::UNDEFINED   8283709998                       # Cumulative time (in ticks) in various power states
system.tol3bus.trans_dist::ReadResp            386389                       # Transaction distribution
system.tol3bus.trans_dist::WritebackDirty       260128                       # Transaction distribution
system.tol3bus.trans_dist::CleanEvict          666506                       # Transaction distribution
system.tol3bus.trans_dist::ReadExReq           156357                       # Transaction distribution
system.tol3bus.trans_dist::ReadExResp          156357                       # Transaction distribution
system.tol3bus.trans_dist::ReadSharedReq       386396                       # Transaction distribution
system.tol3bus.pkt_count_system.cpu0.l2cache.mem_side::system.l3.cpu_side       407169                       # Packet count per connected master and slave (bytes)
system.tol3bus.pkt_count_system.cpu1.l2cache.mem_side::system.l3.cpu_side       401595                       # Packet count per connected master and slave (bytes)
system.tol3bus.pkt_count_system.cpu2.l2cache.mem_side::system.l3.cpu_side       398475                       # Packet count per connected master and slave (bytes)
system.tol3bus.pkt_count_system.cpu3.l2cache.mem_side::system.l3.cpu_side       402565                       # Packet count per connected master and slave (bytes)
system.tol3bus.pkt_count::total               1609804                       # Packet count per connected master and slave (bytes)
system.tol3bus.pkt_size_system.cpu0.l2cache.mem_side::system.l3.cpu_side     11407872                       # Cumulative packet size per connected master and slave (bytes)
system.tol3bus.pkt_size_system.cpu1.l2cache.mem_side::system.l3.cpu_side     11231616                       # Cumulative packet size per connected master and slave (bytes)
system.tol3bus.pkt_size_system.cpu2.l2cache.mem_side::system.l3.cpu_side     11095168                       # Cumulative packet size per connected master and slave (bytes)
system.tol3bus.pkt_size_system.cpu3.l2cache.mem_side::system.l3.cpu_side     11289152                       # Cumulative packet size per connected master and slave (bytes)
system.tol3bus.pkt_size::total               45023808                       # Cumulative packet size per connected master and slave (bytes)
system.tol3bus.snoops                          402329                       # Total snoops (count)
system.tol3bus.snoopTraffic                   6360128                       # Total snoop traffic (bytes)
system.tol3bus.snoop_fanout::samples           945082                       # Request fanout histogram
system.tol3bus.snoop_fanout::mean            0.000961                       # Request fanout histogram
system.tol3bus.snoop_fanout::stdev           0.030981                       # Request fanout histogram
system.tol3bus.snoop_fanout::underflows             0      0.00%      0.00% # Request fanout histogram
system.tol3bus.snoop_fanout::0                 944174     99.90%     99.90% # Request fanout histogram
system.tol3bus.snoop_fanout::1                    908      0.10%    100.00% # Request fanout histogram
system.tol3bus.snoop_fanout::2                      0      0.00%    100.00% # Request fanout histogram
system.tol3bus.snoop_fanout::3                      0      0.00%    100.00% # Request fanout histogram
system.tol3bus.snoop_fanout::4                      0      0.00%    100.00% # Request fanout histogram
system.tol3bus.snoop_fanout::overflows              0      0.00%    100.00% # Request fanout histogram
system.tol3bus.snoop_fanout::min_value              0                       # Request fanout histogram
system.tol3bus.snoop_fanout::max_value              1                       # Request fanout histogram
system.tol3bus.snoop_fanout::total             945082                       # Request fanout histogram
system.tol3bus.reqLayer0.occupancy         1674036091                       # Layer occupancy (ticks)
system.tol3bus.reqLayer0.utilization             20.2                       # Layer utilization (%)
system.tol3bus.respLayer0.occupancy         437013233                       # Layer occupancy (ticks)
system.tol3bus.respLayer0.utilization             5.3                       # Layer utilization (%)
system.tol3bus.respLayer1.occupancy         431022529                       # Layer occupancy (ticks)
system.tol3bus.respLayer1.utilization             5.2                       # Layer utilization (%)
system.tol3bus.respLayer2.occupancy         427516059                       # Layer occupancy (ticks)
system.tol3bus.respLayer2.utilization             5.2                       # Layer utilization (%)
system.tol3bus.respLayer3.occupancy         432103251                       # Layer occupancy (ticks)
system.tol3bus.respLayer3.utilization             5.2                       # Layer utilization (%)

---------- End Simulation Statistics   ----------
