
---------- Begin Simulation Statistics ----------
sim_seconds                                  0.000309                       # Number of seconds simulated
sim_ticks                                   308855502                       # Number of ticks simulated
final_tick                                  308855502                       # Number of ticks from beginning of simulation (restored from checkpoints and never reset)
sim_freq                                 1000000000000                       # Frequency of simulated ticks
host_inst_rate                                  49163                       # Simulator instruction rate (inst/s)
host_op_rate                                   116382                       # Simulator op (including micro ops) rate (op/s)
host_tick_rate                               43310845                       # Simulator tick rate (ticks/s)
host_mem_usage                                8780816                       # Number of bytes of host memory used
host_seconds                                     7.13                       # Real time elapsed on the host
sim_insts                                      350587                       # Number of instructions simulated
sim_ops                                        829932                       # Number of ops (including micro ops) simulated
system.voltage_domain.voltage                       1                       # Voltage in Volts
system.clk_domain.clock                          1000                       # Clock period in ticks
system.mem_ctrls.pwrStateResidencyTicks::UNDEFINED    308855502                       # Cumulative time (in ticks) in various power states
system.mem_ctrls.bytes_read::cpu0.inst          49152                       # Number of bytes read from this memory
system.mem_ctrls.bytes_read::cpu0.data         291328                       # Number of bytes read from this memory
system.mem_ctrls.bytes_read::cpu1.inst          48704                       # Number of bytes read from this memory
system.mem_ctrls.bytes_read::cpu1.data         292096                       # Number of bytes read from this memory
system.mem_ctrls.bytes_read::cpu2.inst          49344                       # Number of bytes read from this memory
system.mem_ctrls.bytes_read::cpu2.data         293056                       # Number of bytes read from this memory
system.mem_ctrls.bytes_read::cpu3.inst          49280                       # Number of bytes read from this memory
system.mem_ctrls.bytes_read::cpu3.data         288000                       # Number of bytes read from this memory
system.mem_ctrls.bytes_read::total            1360960                       # Number of bytes read from this memory
system.mem_ctrls.bytes_inst_read::cpu0.inst        49152                       # Number of instructions bytes read from this memory
system.mem_ctrls.bytes_inst_read::cpu1.inst        48704                       # Number of instructions bytes read from this memory
system.mem_ctrls.bytes_inst_read::cpu2.inst        49344                       # Number of instructions bytes read from this memory
system.mem_ctrls.bytes_inst_read::cpu3.inst        49280                       # Number of instructions bytes read from this memory
system.mem_ctrls.bytes_inst_read::total        196480                       # Number of instructions bytes read from this memory
system.mem_ctrls.num_reads::cpu0.inst             768                       # Number of read requests responded to by this memory
system.mem_ctrls.num_reads::cpu0.data            4552                       # Number of read requests responded to by this memory
system.mem_ctrls.num_reads::cpu1.inst             761                       # Number of read requests responded to by this memory
system.mem_ctrls.num_reads::cpu1.data            4564                       # Number of read requests responded to by this memory
system.mem_ctrls.num_reads::cpu2.inst             771                       # Number of read requests responded to by this memory
system.mem_ctrls.num_reads::cpu2.data            4579                       # Number of read requests responded to by this memory
system.mem_ctrls.num_reads::cpu3.inst             770                       # Number of read requests responded to by this memory
system.mem_ctrls.num_reads::cpu3.data            4500                       # Number of read requests responded to by this memory
system.mem_ctrls.num_reads::total               21265                       # Number of read requests responded to by this memory
system.mem_ctrls.bw_read::cpu0.inst         159142381                       # Total read bandwidth from this memory (bytes/s)
system.mem_ctrls.bw_read::cpu0.data         943250155                       # Total read bandwidth from this memory (bytes/s)
system.mem_ctrls.bw_read::cpu1.inst         157691865                       # Total read bandwidth from this memory (bytes/s)
system.mem_ctrls.bw_read::cpu1.data         945736754                       # Total read bandwidth from this memory (bytes/s)
system.mem_ctrls.bw_read::cpu2.inst         159764031                       # Total read bandwidth from this memory (bytes/s)
system.mem_ctrls.bw_read::cpu2.data         948845004                       # Total read bandwidth from this memory (bytes/s)
system.mem_ctrls.bw_read::cpu3.inst         159556814                       # Total read bandwidth from this memory (bytes/s)
system.mem_ctrls.bw_read::cpu3.data         932474889                       # Total read bandwidth from this memory (bytes/s)
system.mem_ctrls.bw_read::total            4406461893                       # Total read bandwidth from this memory (bytes/s)
system.mem_ctrls.bw_inst_read::cpu0.inst    159142381                       # Instruction read bandwidth from this memory (bytes/s)
system.mem_ctrls.bw_inst_read::cpu1.inst    157691865                       # Instruction read bandwidth from this memory (bytes/s)
system.mem_ctrls.bw_inst_read::cpu2.inst    159764031                       # Instruction read bandwidth from this memory (bytes/s)
system.mem_ctrls.bw_inst_read::cpu3.inst    159556814                       # Instruction read bandwidth from this memory (bytes/s)
system.mem_ctrls.bw_inst_read::total        636155091                       # Instruction read bandwidth from this memory (bytes/s)
system.mem_ctrls.bw_total::cpu0.inst        159142381                       # Total bandwidth to/from this memory (bytes/s)
system.mem_ctrls.bw_total::cpu0.data        943250155                       # Total bandwidth to/from this memory (bytes/s)
system.mem_ctrls.bw_total::cpu1.inst        157691865                       # Total bandwidth to/from this memory (bytes/s)
system.mem_ctrls.bw_total::cpu1.data        945736754                       # Total bandwidth to/from this memory (bytes/s)
system.mem_ctrls.bw_total::cpu2.inst        159764031                       # Total bandwidth to/from this memory (bytes/s)
system.mem_ctrls.bw_total::cpu2.data        948845004                       # Total bandwidth to/from this memory (bytes/s)
system.mem_ctrls.bw_total::cpu3.inst        159556814                       # Total bandwidth to/from this memory (bytes/s)
system.mem_ctrls.bw_total::cpu3.data        932474889                       # Total bandwidth to/from this memory (bytes/s)
system.mem_ctrls.bw_total::total           4406461893                       # Total bandwidth to/from this memory (bytes/s)
system.pwrStateResidencyTicks::UNDEFINED    308855502                       # Cumulative time (in ticks) in various power states
system.cpu0.branchPred.lookups                  25356                       # Number of BP lookups
system.cpu0.branchPred.condPredicted            25356                       # Number of conditional branches predicted
system.cpu0.branchPred.condIncorrect             2383                       # Number of conditional branches incorrect
system.cpu0.branchPred.BTBLookups               22740                       # Number of BTB lookups
system.cpu0.branchPred.BTBHits                      0                       # Number of BTB hits
system.cpu0.branchPred.BTBCorrect                   0                       # Number of correct BTB predictions (this stat may not work properly.
system.cpu0.branchPred.BTBHitPct             0.000000                       # BTB Hit Percentage
system.cpu0.branchPred.usedRAS                   1956                       # Number of times the RAS was used to get a target.
system.cpu0.branchPred.RASInCorrect               334                       # Number of incorrect RAS predictions.
system.cpu0.branchPred.indirectLookups          22740                       # Number of indirect predictor lookups.
system.cpu0.branchPred.indirectHits              8410                       # Number of indirect target hits.
system.cpu0.branchPred.indirectMisses           14330                       # Number of indirect misses.
system.cpu0.branchPredindirectMispredicted         1813                       # Number of mispredicted indirect branches.
system.cpu_voltage_domain.voltage                   1                       # Voltage in Volts
system.cpu_clk_domain.clock                       333                       # Clock period in ticks
system.cpu0.dtb.walker.pwrStateResidencyTicks::UNDEFINED    308855502                       # Cumulative time (in ticks) in various power states
system.cpu0.dtb.rdAccesses                      16067                       # TLB accesses on read requests
system.cpu0.dtb.wrAccesses                      42896                       # TLB accesses on write requests
system.cpu0.dtb.rdMisses                          277                       # TLB misses on read requests
system.cpu0.dtb.wrMisses                          212                       # TLB misses on write requests
system.cpu0.apic_clk_domain.clock                5328                       # Clock period in ticks
system.cpu0.interrupts.pwrStateResidencyTicks::UNDEFINED    308855502                       # Cumulative time (in ticks) in various power states
system.cpu0.itb.walker.pwrStateResidencyTicks::UNDEFINED    308855502                       # Cumulative time (in ticks) in various power states
system.cpu0.itb.rdAccesses                          0                       # TLB accesses on read requests
system.cpu0.itb.wrAccesses                      22928                       # TLB accesses on write requests
system.cpu0.itb.rdMisses                            0                       # TLB misses on read requests
system.cpu0.itb.wrMisses                          162                       # TLB misses on write requests
system.cpu0.workload.numSyscalls                   26                       # Number of system calls
system.cpu0.pwrStateResidencyTicks::ON      308855502                       # Cumulative time (in ticks) in various power states
system.cpu0.numCycles                          927495                       # number of cpu cycles simulated
system.cpu0.numWorkItemsStarted                     0                       # number of work items this cpu started
system.cpu0.numWorkItemsCompleted                   0                       # number of work items this cpu completed
system.cpu0.fetch.icacheStallCycles             45412                       # Number of cycles fetch is stalled on an Icache miss
system.cpu0.fetch.Insts                        139061                       # Number of instructions fetch has processed
system.cpu0.fetch.Branches                      25356                       # Number of branches that fetch encountered
system.cpu0.fetch.predictedBranches             10366                       # Number of branches that fetch has predicted taken
system.cpu0.fetch.Cycles                       813656                       # Number of cycles fetch has run and was not squashing or blocked
system.cpu0.fetch.SquashCycles                   4932                       # Number of cycles fetch has spent squashing
system.cpu0.fetch.MiscStallCycles                  76                       # Number of cycles fetch has spent waiting on interrupts, or bad addresses, or out of MSHRs
system.cpu0.fetch.PendingTrapStallCycles          473                       # Number of stall cycles due to pending traps
system.cpu0.fetch.PendingQuiesceStallCycles            6                       # Number of stall cycles due to pending quiesce instructions
system.cpu0.fetch.IcacheWaitRetryStallCycles          386                       # Number of stall cycles due to full MSHR
system.cpu0.fetch.CacheLines                    22829                       # Number of cache lines fetched
system.cpu0.fetch.IcacheSquashes                 1011                       # Number of outstanding Icache misses that were squashed
system.cpu0.fetch.rateDist::samples            862475                       # Number of instructions fetched each cycle (Total)
system.cpu0.fetch.rateDist::mean             0.355396                       # Number of instructions fetched each cycle (Total)
system.cpu0.fetch.rateDist::stdev            1.543873                       # Number of instructions fetched each cycle (Total)
system.cpu0.fetch.rateDist::underflows              0      0.00%      0.00% # Number of instructions fetched each cycle (Total)
system.cpu0.fetch.rateDist::0                  812868     94.25%     94.25% # Number of instructions fetched each cycle (Total)
system.cpu0.fetch.rateDist::1                    2171      0.25%     94.50% # Number of instructions fetched each cycle (Total)
system.cpu0.fetch.rateDist::2                    4419      0.51%     95.01% # Number of instructions fetched each cycle (Total)
system.cpu0.fetch.rateDist::3                    2185      0.25%     95.27% # Number of instructions fetched each cycle (Total)
system.cpu0.fetch.rateDist::4                    4488      0.52%     95.79% # Number of instructions fetched each cycle (Total)
system.cpu0.fetch.rateDist::5                    1956      0.23%     96.01% # Number of instructions fetched each cycle (Total)
system.cpu0.fetch.rateDist::6                    5914      0.69%     96.70% # Number of instructions fetched each cycle (Total)
system.cpu0.fetch.rateDist::7                    2052      0.24%     96.94% # Number of instructions fetched each cycle (Total)
system.cpu0.fetch.rateDist::8                   26422      3.06%    100.00% # Number of instructions fetched each cycle (Total)
system.cpu0.fetch.rateDist::overflows               0      0.00%    100.00% # Number of instructions fetched each cycle (Total)
system.cpu0.fetch.rateDist::min_value               0                       # Number of instructions fetched each cycle (Total)
system.cpu0.fetch.rateDist::max_value               8                       # Number of instructions fetched each cycle (Total)
system.cpu0.fetch.rateDist::total              862475                       # Number of instructions fetched each cycle (Total)
system.cpu0.fetch.branchRate                 0.027338                       # Number of branch fetches per cycle
system.cpu0.fetch.rate                       0.149932                       # Number of inst fetches per cycle
system.cpu0.decode.IdleCycles                   35918                       # Number of cycles decode is idle
system.cpu0.decode.BlockedCycles               784636                       # Number of cycles decode is blocked
system.cpu0.decode.RunCycles                    22993                       # Number of cycles decode is running
system.cpu0.decode.UnblockCycles                16462                       # Number of cycles decode is unblocking
system.cpu0.decode.SquashCycles                  2466                       # Number of cycles decode is squashing
system.cpu0.decode.DecodedInsts                291695                       # Number of instructions handled by decode
system.cpu0.rename.SquashCycles                  2466                       # Number of cycles rename is squashing
system.cpu0.rename.IdleCycles                   41649                       # Number of cycles rename is idle
system.cpu0.rename.BlockCycles                 329519                       # Number of cycles rename is blocking
system.cpu0.rename.serializeStallCycles          3098                       # count of cycles rename stalled for serializing inst
system.cpu0.rename.RunCycles                    33533                       # Number of cycles rename is running
system.cpu0.rename.UnblockCycles               452210                       # Number of cycles rename is unblocking
system.cpu0.rename.RenamedInsts                282720                       # Number of instructions processed by rename
system.cpu0.rename.ROBFullEvents                   81                       # Number of times rename has blocked due to ROB full
system.cpu0.rename.IQFullEvents                 13155                       # Number of times rename has blocked due to IQ full
system.cpu0.rename.LQFullEvents                     2                       # Number of times rename has blocked due to LQ full
system.cpu0.rename.SQFullEvents                437890                       # Number of times rename has blocked due to SQ full
system.cpu0.rename.RenamedOperands             321832                       # Number of destination operands rename has renamed
system.cpu0.rename.RenameLookups               811689                       # Number of register rename lookups that rename has made
system.cpu0.rename.int_rename_lookups          489363                       # Number of integer rename lookups
system.cpu0.rename.fp_rename_lookups            34323                       # Number of floating rename lookups
system.cpu0.rename.CommittedMaps               240033                       # Number of HB maps that are committed
system.cpu0.rename.UndoneMaps                   81743                       # Number of HB maps that are undone due to squashing
system.cpu0.rename.serializingInsts                71                       # count of serializing insts renamed
system.cpu0.rename.tempSerializingInsts            66                       # count of temporary serializing insts renamed
system.cpu0.rename.skidInsts                    82643                       # count of insts added to the skid buffer
system.cpu0.memDep0.insertedLoads               18986                       # Number of loads inserted to the mem dependence unit.
system.cpu0.memDep0.insertedStores              45867                       # Number of stores inserted to the mem dependence unit.
system.cpu0.memDep0.conflictingLoads              499                       # Number of conflicting loads.
system.cpu0.memDep0.conflictingStores             680                       # Number of conflicting stores.
system.cpu0.iq.iqInstsAdded                    265373                       # Number of instructions added to the IQ (excludes non-spec)
system.cpu0.iq.iqNonSpecInstsAdded                366                       # Number of non-speculative instructions added to the IQ
system.cpu0.iq.iqInstsIssued                   247172                       # Number of instructions issued
system.cpu0.iq.iqSquashedInstsIssued              776                       # Number of squashed instructions issued
system.cpu0.iq.iqSquashedInstsExamined          58182                       # Number of squashed instructions iterated over during squash; mainly for profiling
system.cpu0.iq.iqSquashedOperandsExamined        78327                       # Number of squashed operands that are examined and possibly removed from graph
system.cpu0.iq.iqSquashedNonSpecRemoved           328                       # Number of squashed non-spec instructions that were removed
system.cpu0.iq.issued_per_cycle::samples       862475                       # Number of insts issued each cycle
system.cpu0.iq.issued_per_cycle::mean        0.286585                       # Number of insts issued each cycle
system.cpu0.iq.issued_per_cycle::stdev       0.986279                       # Number of insts issued each cycle
system.cpu0.iq.issued_per_cycle::underflows            0      0.00%      0.00% # Number of insts issued each cycle
system.cpu0.iq.issued_per_cycle::0             756448     87.71%     87.71% # Number of insts issued each cycle
system.cpu0.iq.issued_per_cycle::1              52566      6.09%     93.80% # Number of insts issued each cycle
system.cpu0.iq.issued_per_cycle::2              17995      2.09%     95.89% # Number of insts issued each cycle
system.cpu0.iq.issued_per_cycle::3              11835      1.37%     97.26% # Number of insts issued each cycle
system.cpu0.iq.issued_per_cycle::4               9353      1.08%     98.34% # Number of insts issued each cycle
system.cpu0.iq.issued_per_cycle::5               5878      0.68%     99.03% # Number of insts issued each cycle
system.cpu0.iq.issued_per_cycle::6               3955      0.46%     99.48% # Number of insts issued each cycle
system.cpu0.iq.issued_per_cycle::7               2981      0.35%     99.83% # Number of insts issued each cycle
system.cpu0.iq.issued_per_cycle::8               1464      0.17%    100.00% # Number of insts issued each cycle
system.cpu0.iq.issued_per_cycle::overflows            0      0.00%    100.00% # Number of insts issued each cycle
system.cpu0.iq.issued_per_cycle::min_value            0                       # Number of insts issued each cycle
system.cpu0.iq.issued_per_cycle::max_value            8                       # Number of insts issued each cycle
system.cpu0.iq.issued_per_cycle::total         862475                       # Number of insts issued each cycle
system.cpu0.iq.fu_full::No_OpClass                  0      0.00%      0.00% # attempts to use FU when none available
system.cpu0.iq.fu_full::IntAlu                   1637     83.18%     83.18% # attempts to use FU when none available
system.cpu0.iq.fu_full::IntMult                     0      0.00%     83.18% # attempts to use FU when none available
system.cpu0.iq.fu_full::IntDiv                      0      0.00%     83.18% # attempts to use FU when none available
system.cpu0.iq.fu_full::FloatAdd                   14      0.71%     83.89% # attempts to use FU when none available
system.cpu0.iq.fu_full::FloatCmp                    0      0.00%     83.89% # attempts to use FU when none available
system.cpu0.iq.fu_full::FloatCvt                    0      0.00%     83.89% # attempts to use FU when none available
system.cpu0.iq.fu_full::FloatMult                   0      0.00%     83.89% # attempts to use FU when none available
system.cpu0.iq.fu_full::FloatMultAcc                0      0.00%     83.89% # attempts to use FU when none available
system.cpu0.iq.fu_full::FloatDiv                    0      0.00%     83.89% # attempts to use FU when none available
system.cpu0.iq.fu_full::FloatMisc                   0      0.00%     83.89% # attempts to use FU when none available
system.cpu0.iq.fu_full::FloatSqrt                   0      0.00%     83.89% # attempts to use FU when none available
system.cpu0.iq.fu_full::SimdAdd                     0      0.00%     83.89% # attempts to use FU when none available
system.cpu0.iq.fu_full::SimdAddAcc                  0      0.00%     83.89% # attempts to use FU when none available
system.cpu0.iq.fu_full::SimdAlu                     0      0.00%     83.89% # attempts to use FU when none available
system.cpu0.iq.fu_full::SimdCmp                     0      0.00%     83.89% # attempts to use FU when none available
system.cpu0.iq.fu_full::SimdCvt                     0      0.00%     83.89% # attempts to use FU when none available
system.cpu0.iq.fu_full::SimdMisc                    0      0.00%     83.89% # attempts to use FU when none available
system.cpu0.iq.fu_full::SimdMult                    0      0.00%     83.89% # attempts to use FU when none available
system.cpu0.iq.fu_full::SimdMultAcc                 0      0.00%     83.89% # attempts to use FU when none available
system.cpu0.iq.fu_full::SimdShift                   0      0.00%     83.89% # attempts to use FU when none available
system.cpu0.iq.fu_full::SimdShiftAcc                0      0.00%     83.89% # attempts to use FU when none available
system.cpu0.iq.fu_full::SimdSqrt                    0      0.00%     83.89% # attempts to use FU when none available
system.cpu0.iq.fu_full::SimdFloatAdd                0      0.00%     83.89% # attempts to use FU when none available
system.cpu0.iq.fu_full::SimdFloatAlu                0      0.00%     83.89% # attempts to use FU when none available
system.cpu0.iq.fu_full::SimdFloatCmp                0      0.00%     83.89% # attempts to use FU when none available
system.cpu0.iq.fu_full::SimdFloatCvt                0      0.00%     83.89% # attempts to use FU when none available
system.cpu0.iq.fu_full::SimdFloatDiv                0      0.00%     83.89% # attempts to use FU when none available
system.cpu0.iq.fu_full::SimdFloatMisc               0      0.00%     83.89% # attempts to use FU when none available
system.cpu0.iq.fu_full::SimdFloatMult               0      0.00%     83.89% # attempts to use FU when none available
system.cpu0.iq.fu_full::SimdFloatMultAcc            0      0.00%     83.89% # attempts to use FU when none available
system.cpu0.iq.fu_full::SimdFloatSqrt               0      0.00%     83.89% # attempts to use FU when none available
system.cpu0.iq.fu_full::MemRead                    78      3.96%     87.86% # attempts to use FU when none available
system.cpu0.iq.fu_full::MemWrite                   77      3.91%     91.77% # attempts to use FU when none available
system.cpu0.iq.fu_full::FloatMemRead                7      0.36%     92.12% # attempts to use FU when none available
system.cpu0.iq.fu_full::FloatMemWrite             155      7.88%    100.00% # attempts to use FU when none available
system.cpu0.iq.fu_full::IprAccess                   0      0.00%    100.00% # attempts to use FU when none available
system.cpu0.iq.fu_full::InstPrefetch                0      0.00%    100.00% # attempts to use FU when none available
system.cpu0.iq.FU_type_0::No_OpClass             2534      1.03%      1.03% # Type of FU issued
system.cpu0.iq.FU_type_0::IntAlu               169261     68.48%     69.50% # Type of FU issued
system.cpu0.iq.FU_type_0::IntMult                3303      1.34%     70.84% # Type of FU issued
system.cpu0.iq.FU_type_0::IntDiv                10456      4.23%     75.07% # Type of FU issued
system.cpu0.iq.FU_type_0::FloatAdd               1063      0.43%     75.50% # Type of FU issued
system.cpu0.iq.FU_type_0::FloatCmp                  0      0.00%     75.50% # Type of FU issued
system.cpu0.iq.FU_type_0::FloatCvt                  0      0.00%     75.50% # Type of FU issued
system.cpu0.iq.FU_type_0::FloatMult                 0      0.00%     75.50% # Type of FU issued
system.cpu0.iq.FU_type_0::FloatMultAcc              0      0.00%     75.50% # Type of FU issued
system.cpu0.iq.FU_type_0::FloatDiv                  0      0.00%     75.50% # Type of FU issued
system.cpu0.iq.FU_type_0::FloatMisc                 0      0.00%     75.50% # Type of FU issued
system.cpu0.iq.FU_type_0::FloatSqrt                 0      0.00%     75.50% # Type of FU issued
system.cpu0.iq.FU_type_0::SimdAdd                   0      0.00%     75.50% # Type of FU issued
system.cpu0.iq.FU_type_0::SimdAddAcc                0      0.00%     75.50% # Type of FU issued
system.cpu0.iq.FU_type_0::SimdAlu                   0      0.00%     75.50% # Type of FU issued
system.cpu0.iq.FU_type_0::SimdCmp                   0      0.00%     75.50% # Type of FU issued
system.cpu0.iq.FU_type_0::SimdCvt                   0      0.00%     75.50% # Type of FU issued
system.cpu0.iq.FU_type_0::SimdMisc                  0      0.00%     75.50% # Type of FU issued
system.cpu0.iq.FU_type_0::SimdMult                  0      0.00%     75.50% # Type of FU issued
system.cpu0.iq.FU_type_0::SimdMultAcc               0      0.00%     75.50% # Type of FU issued
system.cpu0.iq.FU_type_0::SimdShift                 0      0.00%     75.50% # Type of FU issued
system.cpu0.iq.FU_type_0::SimdShiftAcc              0      0.00%     75.50% # Type of FU issued
system.cpu0.iq.FU_type_0::SimdSqrt                  0      0.00%     75.50% # Type of FU issued
system.cpu0.iq.FU_type_0::SimdFloatAdd              0      0.00%     75.50% # Type of FU issued
system.cpu0.iq.FU_type_0::SimdFloatAlu              0      0.00%     75.50% # Type of FU issued
system.cpu0.iq.FU_type_0::SimdFloatCmp              0      0.00%     75.50% # Type of FU issued
system.cpu0.iq.FU_type_0::SimdFloatCvt              0      0.00%     75.50% # Type of FU issued
system.cpu0.iq.FU_type_0::SimdFloatDiv              0      0.00%     75.50% # Type of FU issued
system.cpu0.iq.FU_type_0::SimdFloatMisc             0      0.00%     75.50% # Type of FU issued
system.cpu0.iq.FU_type_0::SimdFloatMult             0      0.00%     75.50% # Type of FU issued
system.cpu0.iq.FU_type_0::SimdFloatMultAcc            0      0.00%     75.50% # Type of FU issued
system.cpu0.iq.FU_type_0::SimdFloatSqrt             0      0.00%     75.50% # Type of FU issued
system.cpu0.iq.FU_type_0::MemRead               16608      6.72%     82.22% # Type of FU issued
system.cpu0.iq.FU_type_0::MemWrite              11781      4.77%     86.99% # Type of FU issued
system.cpu0.iq.FU_type_0::FloatMemRead            398      0.16%     87.15% # Type of FU issued
system.cpu0.iq.FU_type_0::FloatMemWrite         31768     12.85%    100.00% # Type of FU issued
system.cpu0.iq.FU_type_0::IprAccess                 0      0.00%    100.00% # Type of FU issued
system.cpu0.iq.FU_type_0::InstPrefetch              0      0.00%    100.00% # Type of FU issued
system.cpu0.iq.FU_type_0::total                247172                       # Type of FU issued
system.cpu0.iq.rate                          0.266494                       # Inst issue rate
system.cpu0.iq.fu_busy_cnt                       1968                       # FU busy when requested
system.cpu0.iq.fu_busy_rate                  0.007962                       # FU busy rate (busy events/executed inst)
system.cpu0.iq.int_inst_queue_reads           1292625                       # Number of integer instruction queue reads
system.cpu0.iq.int_inst_queue_writes           289991                       # Number of integer instruction queue writes
system.cpu0.iq.int_inst_queue_wakeup_accesses       206388                       # Number of integer instruction queue wakeup accesses
system.cpu0.iq.fp_inst_queue_reads              66936                       # Number of floating instruction queue reads
system.cpu0.iq.fp_inst_queue_writes             33975                       # Number of floating instruction queue writes
system.cpu0.iq.fp_inst_queue_wakeup_accesses        33261                       # Number of floating instruction queue wakeup accesses
system.cpu0.iq.vec_inst_queue_reads                 0                       # Number of vector instruction queue reads
system.cpu0.iq.vec_inst_queue_writes                0                       # Number of vector instruction queue writes
system.cpu0.iq.vec_inst_queue_wakeup_accesses            0                       # Number of vector instruction queue wakeup accesses
system.cpu0.iq.int_alu_accesses                213079                       # Number of integer alu accesses
system.cpu0.iq.fp_alu_accesses                  33527                       # Number of floating point alu accesses
system.cpu0.iq.vec_alu_accesses                     0                       # Number of vector alu accesses
system.cpu0.iew.lsq.thread0.forwLoads            1953                       # Number of loads that had data forwarded from stores
system.cpu0.iew.lsq.thread0.invAddrLoads            0                       # Number of loads ignored due to an invalid address
system.cpu0.iew.lsq.thread0.squashedLoads         7346                       # Number of loads squashed
system.cpu0.iew.lsq.thread0.ignoredResponses           22                       # Number of memory responses ignored because the instruction is squashed
system.cpu0.iew.lsq.thread0.memOrderViolation           50                       # Number of memory ordering violations
system.cpu0.iew.lsq.thread0.squashedStores         5183                       # Number of stores squashed
system.cpu0.iew.lsq.thread0.invAddrSwpfs            0                       # Number of software prefetches ignored due to an invalid address
system.cpu0.iew.lsq.thread0.blockedLoads            0                       # Number of blocked loads due to partial load-store forwarding
system.cpu0.iew.lsq.thread0.rescheduledLoads           29                       # Number of loads that were rescheduled
system.cpu0.iew.lsq.thread0.cacheBlocked           46                       # Number of times an access to memory failed due to the cache being blocked
system.cpu0.iew.iewIdleCycles                       0                       # Number of cycles IEW is idle
system.cpu0.iew.iewSquashCycles                  2466                       # Number of cycles IEW is squashing
system.cpu0.iew.iewBlockCycles                   8958                       # Number of cycles IEW is blocking
system.cpu0.iew.iewUnblockCycles               318614                       # Number of cycles IEW is unblocking
system.cpu0.iew.iewDispatchedInsts             265739                       # Number of instructions dispatched to IQ
system.cpu0.iew.iewDispSquashedInsts              131                       # Number of squashed instructions skipped by dispatch
system.cpu0.iew.iewDispLoadInsts                18986                       # Number of dispatched load instructions
system.cpu0.iew.iewDispStoreInsts               45867                       # Number of dispatched store instructions
system.cpu0.iew.iewDispNonSpecInsts               161                       # Number of dispatched non-speculative instructions
system.cpu0.iew.iewIQFullEvents                    25                       # Number of times the IQ has become full, causing a stall
system.cpu0.iew.iewLSQFullEvents               318584                       # Number of times the LSQ has become full, causing a stall
system.cpu0.iew.memOrderViolationEvents            50                       # Number of memory order violations
system.cpu0.iew.predictedTakenIncorrect           528                       # Number of branches that were predicted taken incorrectly
system.cpu0.iew.predictedNotTakenIncorrect         2681                       # Number of branches that were predicted not taken incorrectly
system.cpu0.iew.branchMispredicts                3209                       # Number of branch mispredicts detected at execute
system.cpu0.iew.iewExecutedInsts               241852                       # Number of executed instructions
system.cpu0.iew.iewExecLoadInsts                16015                       # Number of load instructions executed
system.cpu0.iew.iewExecSquashedInsts             5318                       # Number of squashed instructions skipped in execute
system.cpu0.iew.exec_swp                            0                       # number of swp insts executed
system.cpu0.iew.exec_nop                            0                       # number of nop insts executed
system.cpu0.iew.exec_refs                       58907                       # number of memory reference insts executed
system.cpu0.iew.exec_branches                   17123                       # Number of branches executed
system.cpu0.iew.exec_stores                     42892                       # Number of stores executed
system.cpu0.iew.exec_rate                    0.260758                       # Inst execution rate
system.cpu0.iew.wb_sent                        240632                       # cumulative count of insts sent to commit
system.cpu0.iew.wb_count                       239649                       # cumulative count of insts written-back
system.cpu0.iew.wb_producers                   157198                       # num instructions producing a value
system.cpu0.iew.wb_consumers                   336601                       # num instructions consuming a value
system.cpu0.iew.wb_rate                      0.258383                       # insts written-back per cycle
system.cpu0.iew.wb_fanout                    0.467016                       # average fanout of values written-back
system.cpu0.commit.commitSquashedInsts          58199                       # The number of squashed insts skipped by commit
system.cpu0.commit.commitNonSpecStalls             38                       # The number of times commit has been forced to stall to communicate backwards
system.cpu0.commit.branchMispredicts             2437                       # The number of times a branch was mispredicted
system.cpu0.commit.committed_per_cycle::samples       853173                       # Number of insts commited each cycle
system.cpu0.commit.committed_per_cycle::mean     0.243238                       # Number of insts commited each cycle
system.cpu0.commit.committed_per_cycle::stdev     0.963677                       # Number of insts commited each cycle
system.cpu0.commit.committed_per_cycle::underflows            0      0.00%      0.00% # Number of insts commited each cycle
system.cpu0.commit.committed_per_cycle::0       757151     88.75%     88.75% # Number of insts commited each cycle
system.cpu0.commit.committed_per_cycle::1        61734      7.24%     95.98% # Number of insts commited each cycle
system.cpu0.commit.committed_per_cycle::2         8390      0.98%     96.96% # Number of insts commited each cycle
system.cpu0.commit.committed_per_cycle::3        10029      1.18%     98.14% # Number of insts commited each cycle
system.cpu0.commit.committed_per_cycle::4         3085      0.36%     98.50% # Number of insts commited each cycle
system.cpu0.commit.committed_per_cycle::5         3550      0.42%     98.92% # Number of insts commited each cycle
system.cpu0.commit.committed_per_cycle::6         1870      0.22%     99.14% # Number of insts commited each cycle
system.cpu0.commit.committed_per_cycle::7         1299      0.15%     99.29% # Number of insts commited each cycle
system.cpu0.commit.committed_per_cycle::8         6065      0.71%    100.00% # Number of insts commited each cycle
system.cpu0.commit.committed_per_cycle::overflows            0      0.00%    100.00% # Number of insts commited each cycle
system.cpu0.commit.committed_per_cycle::min_value            0                       # Number of insts commited each cycle
system.cpu0.commit.committed_per_cycle::max_value            8                       # Number of insts commited each cycle
system.cpu0.commit.committed_per_cycle::total       853173                       # Number of insts commited each cycle
system.cpu0.commit.committedInsts               87663                       # Number of instructions committed
system.cpu0.commit.committedOps                207524                       # Number of ops (including micro ops) committed
system.cpu0.commit.swp_count                        0                       # Number of s/w prefetches committed
system.cpu0.commit.refs                         52320                       # Number of memory references committed
system.cpu0.commit.loads                        11640                       # Number of loads committed
system.cpu0.commit.membars                          8                       # Number of memory barriers committed
system.cpu0.commit.branches                     14567                       # Number of branches committed
system.cpu0.commit.vec_insts                        0                       # Number of committed Vector instructions.
system.cpu0.commit.fp_insts                     33039                       # Number of committed floating point instructions.
system.cpu0.commit.int_insts                   204804                       # Number of committed integer instructions.
system.cpu0.commit.function_calls                1209                       # Number of function calls committed.
system.cpu0.commit.op_class_0::No_OpClass         1740      0.84%      0.84% # Class of committed instruction
system.cpu0.commit.op_class_0::IntAlu          138788     66.88%     67.72% # Class of committed instruction
system.cpu0.commit.op_class_0::IntMult           3203      1.54%     69.26% # Class of committed instruction
system.cpu0.commit.op_class_0::IntDiv           10437      5.03%     74.29% # Class of committed instruction
system.cpu0.commit.op_class_0::FloatAdd          1036      0.50%     74.79% # Class of committed instruction
system.cpu0.commit.op_class_0::FloatCmp             0      0.00%     74.79% # Class of committed instruction
system.cpu0.commit.op_class_0::FloatCvt             0      0.00%     74.79% # Class of committed instruction
system.cpu0.commit.op_class_0::FloatMult            0      0.00%     74.79% # Class of committed instruction
system.cpu0.commit.op_class_0::FloatMultAcc            0      0.00%     74.79% # Class of committed instruction
system.cpu0.commit.op_class_0::FloatDiv             0      0.00%     74.79% # Class of committed instruction
system.cpu0.commit.op_class_0::FloatMisc            0      0.00%     74.79% # Class of committed instruction
system.cpu0.commit.op_class_0::FloatSqrt            0      0.00%     74.79% # Class of committed instruction
system.cpu0.commit.op_class_0::SimdAdd              0      0.00%     74.79% # Class of committed instruction
system.cpu0.commit.op_class_0::SimdAddAcc            0      0.00%     74.79% # Class of committed instruction
system.cpu0.commit.op_class_0::SimdAlu              0      0.00%     74.79% # Class of committed instruction
system.cpu0.commit.op_class_0::SimdCmp              0      0.00%     74.79% # Class of committed instruction
system.cpu0.commit.op_class_0::SimdCvt              0      0.00%     74.79% # Class of committed instruction
system.cpu0.commit.op_class_0::SimdMisc             0      0.00%     74.79% # Class of committed instruction
system.cpu0.commit.op_class_0::SimdMult             0      0.00%     74.79% # Class of committed instruction
system.cpu0.commit.op_class_0::SimdMultAcc            0      0.00%     74.79% # Class of committed instruction
system.cpu0.commit.op_class_0::SimdShift            0      0.00%     74.79% # Class of committed instruction
system.cpu0.commit.op_class_0::SimdShiftAcc            0      0.00%     74.79% # Class of committed instruction
system.cpu0.commit.op_class_0::SimdSqrt             0      0.00%     74.79% # Class of committed instruction
system.cpu0.commit.op_class_0::SimdFloatAdd            0      0.00%     74.79% # Class of committed instruction
system.cpu0.commit.op_class_0::SimdFloatAlu            0      0.00%     74.79% # Class of committed instruction
system.cpu0.commit.op_class_0::SimdFloatCmp            0      0.00%     74.79% # Class of committed instruction
system.cpu0.commit.op_class_0::SimdFloatCvt            0      0.00%     74.79% # Class of committed instruction
system.cpu0.commit.op_class_0::SimdFloatDiv            0      0.00%     74.79% # Class of committed instruction
system.cpu0.commit.op_class_0::SimdFloatMisc            0      0.00%     74.79% # Class of committed instruction
system.cpu0.commit.op_class_0::SimdFloatMult            0      0.00%     74.79% # Class of committed instruction
system.cpu0.commit.op_class_0::SimdFloatMultAcc            0      0.00%     74.79% # Class of committed instruction
system.cpu0.commit.op_class_0::SimdFloatSqrt            0      0.00%     74.79% # Class of committed instruction
system.cpu0.commit.op_class_0::MemRead          11302      5.45%     80.23% # Class of committed instruction
system.cpu0.commit.op_class_0::MemWrite          9134      4.40%     84.64% # Class of committed instruction
system.cpu0.commit.op_class_0::FloatMemRead          338      0.16%     84.80% # Class of committed instruction
system.cpu0.commit.op_class_0::FloatMemWrite        31546     15.20%    100.00% # Class of committed instruction
system.cpu0.commit.op_class_0::IprAccess            0      0.00%    100.00% # Class of committed instruction
system.cpu0.commit.op_class_0::InstPrefetch            0      0.00%    100.00% # Class of committed instruction
system.cpu0.commit.op_class_0::total           207524                       # Class of committed instruction
system.cpu0.commit.bw_lim_events                 6065                       # number cycles where commit BW limit reached
system.cpu0.rob.rob_reads                     1112831                       # The number of ROB reads
system.cpu0.rob.rob_writes                     540993                       # The number of ROB writes
system.cpu0.timesIdled                            433                       # Number of times that the entire CPU went into an idle state and unscheduled itself
system.cpu0.idleCycles                          65020                       # Total number of cycles that the CPU has spent unscheduled due to idling
system.cpu0.committedInsts                      87663                       # Number of Instructions Simulated
system.cpu0.committedOps                       207524                       # Number of Ops (including micro ops) Simulated
system.cpu0.cpi                             10.580233                       # CPI: Cycles Per Instruction
system.cpu0.cpi_total                       10.580233                       # CPI: Total CPI of All Threads
system.cpu0.ipc                              0.094516                       # IPC: Instructions Per Cycle
system.cpu0.ipc_total                        0.094516                       # IPC: Total IPC of All Threads
system.cpu0.int_regfile_reads                  418937                       # number of integer regfile reads
system.cpu0.int_regfile_writes                 202208                       # number of integer regfile writes
system.cpu0.fp_regfile_reads                    34011                       # number of floating regfile reads
system.cpu0.fp_regfile_writes                    1405                       # number of floating regfile writes
system.cpu0.cc_regfile_reads                   146043                       # number of cc regfile reads
system.cpu0.cc_regfile_writes                   71155                       # number of cc regfile writes
system.cpu0.misc_regfile_reads                  96193                       # number of misc regfile reads
system.cpu0.dcache.tags.pwrStateResidencyTicks::UNDEFINED    308855502                       # Cumulative time (in ticks) in various power states
system.cpu0.dcache.tags.replacements             4066                       # number of replacements
system.cpu0.dcache.tags.tagsinuse          457.178844                       # Cycle average of tags in use
system.cpu0.dcache.tags.total_refs              49731                       # Total number of references to valid blocks.
system.cpu0.dcache.tags.sampled_refs             4578                       # Sample count of references to valid blocks.
system.cpu0.dcache.tags.avg_refs            10.863041                       # Average number of references to valid blocks.
system.cpu0.dcache.tags.warmup_cycle           148518                       # Cycle when the warmup percentage was hit.
system.cpu0.dcache.tags.occ_blocks::cpu0.data   457.178844                       # Average occupied blocks per requestor
system.cpu0.dcache.tags.occ_percent::cpu0.data     0.892927                       # Average percentage of cache occupancy
system.cpu0.dcache.tags.occ_percent::total     0.892927                       # Average percentage of cache occupancy
system.cpu0.dcache.tags.occ_task_id_blocks::1024          512                       # Occupied blocks per task id
system.cpu0.dcache.tags.age_task_id_blocks_1024::0           32                       # Occupied blocks per task id
system.cpu0.dcache.tags.age_task_id_blocks_1024::1          466                       # Occupied blocks per task id
system.cpu0.dcache.tags.age_task_id_blocks_1024::2           14                       # Occupied blocks per task id
system.cpu0.dcache.tags.occ_task_id_percent::1024            1                       # Percentage of cache occupancy per task id
system.cpu0.dcache.tags.tag_accesses           440138                       # Number of tag accesses
system.cpu0.dcache.tags.data_accesses          440138                       # Number of data accesses
system.cpu0.dcache.pwrStateResidencyTicks::UNDEFINED    308855502                       # Cumulative time (in ticks) in various power states
system.cpu0.dcache.ReadReq_hits::cpu0.data        13467                       # number of ReadReq hits
system.cpu0.dcache.ReadReq_hits::total          13467                       # number of ReadReq hits
system.cpu0.dcache.WriteReq_hits::cpu0.data        36264                       # number of WriteReq hits
system.cpu0.dcache.WriteReq_hits::total         36264                       # number of WriteReq hits
system.cpu0.dcache.demand_hits::cpu0.data        49731                       # number of demand (read+write) hits
system.cpu0.dcache.demand_hits::total           49731                       # number of demand (read+write) hits
system.cpu0.dcache.overall_hits::cpu0.data        49731                       # number of overall hits
system.cpu0.dcache.overall_hits::total          49731                       # number of overall hits
system.cpu0.dcache.ReadReq_misses::cpu0.data          325                       # number of ReadReq misses
system.cpu0.dcache.ReadReq_misses::total          325                       # number of ReadReq misses
system.cpu0.dcache.WriteReq_misses::cpu0.data         4389                       # number of WriteReq misses
system.cpu0.dcache.WriteReq_misses::total         4389                       # number of WriteReq misses
system.cpu0.dcache.demand_misses::cpu0.data         4714                       # number of demand (read+write) misses
system.cpu0.dcache.demand_misses::total          4714                       # number of demand (read+write) misses
system.cpu0.dcache.overall_misses::cpu0.data         4714                       # number of overall misses
system.cpu0.dcache.overall_misses::total         4714                       # number of overall misses
system.cpu0.dcache.ReadReq_miss_latency::cpu0.data     22851126                       # number of ReadReq miss cycles
system.cpu0.dcache.ReadReq_miss_latency::total     22851126                       # number of ReadReq miss cycles
system.cpu0.dcache.WriteReq_miss_latency::cpu0.data    250098318                       # number of WriteReq miss cycles
system.cpu0.dcache.WriteReq_miss_latency::total    250098318                       # number of WriteReq miss cycles
system.cpu0.dcache.demand_miss_latency::cpu0.data    272949444                       # number of demand (read+write) miss cycles
system.cpu0.dcache.demand_miss_latency::total    272949444                       # number of demand (read+write) miss cycles
system.cpu0.dcache.overall_miss_latency::cpu0.data    272949444                       # number of overall miss cycles
system.cpu0.dcache.overall_miss_latency::total    272949444                       # number of overall miss cycles
system.cpu0.dcache.ReadReq_accesses::cpu0.data        13792                       # number of ReadReq accesses(hits+misses)
system.cpu0.dcache.ReadReq_accesses::total        13792                       # number of ReadReq accesses(hits+misses)
system.cpu0.dcache.WriteReq_accesses::cpu0.data        40653                       # number of WriteReq accesses(hits+misses)
system.cpu0.dcache.WriteReq_accesses::total        40653                       # number of WriteReq accesses(hits+misses)
system.cpu0.dcache.demand_accesses::cpu0.data        54445                       # number of demand (read+write) accesses
system.cpu0.dcache.demand_accesses::total        54445                       # number of demand (read+write) accesses
system.cpu0.dcache.overall_accesses::cpu0.data        54445                       # number of overall (read+write) accesses
system.cpu0.dcache.overall_accesses::total        54445                       # number of overall (read+write) accesses
system.cpu0.dcache.ReadReq_miss_rate::cpu0.data     0.023564                       # miss rate for ReadReq accesses
system.cpu0.dcache.ReadReq_miss_rate::total     0.023564                       # miss rate for ReadReq accesses
system.cpu0.dcache.WriteReq_miss_rate::cpu0.data     0.107963                       # miss rate for WriteReq accesses
system.cpu0.dcache.WriteReq_miss_rate::total     0.107963                       # miss rate for WriteReq accesses
system.cpu0.dcache.demand_miss_rate::cpu0.data     0.086583                       # miss rate for demand accesses
system.cpu0.dcache.demand_miss_rate::total     0.086583                       # miss rate for demand accesses
system.cpu0.dcache.overall_miss_rate::cpu0.data     0.086583                       # miss rate for overall accesses
system.cpu0.dcache.overall_miss_rate::total     0.086583                       # miss rate for overall accesses
system.cpu0.dcache.ReadReq_avg_miss_latency::cpu0.data 70311.156923                       # average ReadReq miss latency
system.cpu0.dcache.ReadReq_avg_miss_latency::total 70311.156923                       # average ReadReq miss latency
system.cpu0.dcache.WriteReq_avg_miss_latency::cpu0.data 56982.984279                       # average WriteReq miss latency
system.cpu0.dcache.WriteReq_avg_miss_latency::total 56982.984279                       # average WriteReq miss latency
system.cpu0.dcache.demand_avg_miss_latency::cpu0.data 57901.876114                       # average overall miss latency
system.cpu0.dcache.demand_avg_miss_latency::total 57901.876114                       # average overall miss latency
system.cpu0.dcache.overall_avg_miss_latency::cpu0.data 57901.876114                       # average overall miss latency
system.cpu0.dcache.overall_avg_miss_latency::total 57901.876114                       # average overall miss latency
system.cpu0.dcache.blocked_cycles::no_mshrs         1302                       # number of cycles access was blocked
system.cpu0.dcache.blocked_cycles::no_targets            0                       # number of cycles access was blocked
system.cpu0.dcache.blocked::no_mshrs               13                       # number of cycles access was blocked
system.cpu0.dcache.blocked::no_targets              0                       # number of cycles access was blocked
system.cpu0.dcache.avg_blocked_cycles::no_mshrs   100.153846                       # average number of cycles each access was blocked
system.cpu0.dcache.avg_blocked_cycles::no_targets          nan                       # average number of cycles each access was blocked
system.cpu0.dcache.writebacks::writebacks         3933                       # number of writebacks
system.cpu0.dcache.writebacks::total             3933                       # number of writebacks
system.cpu0.dcache.ReadReq_mshr_hits::cpu0.data          132                       # number of ReadReq MSHR hits
system.cpu0.dcache.ReadReq_mshr_hits::total          132                       # number of ReadReq MSHR hits
system.cpu0.dcache.WriteReq_mshr_hits::cpu0.data            3                       # number of WriteReq MSHR hits
system.cpu0.dcache.WriteReq_mshr_hits::total            3                       # number of WriteReq MSHR hits
system.cpu0.dcache.demand_mshr_hits::cpu0.data          135                       # number of demand (read+write) MSHR hits
system.cpu0.dcache.demand_mshr_hits::total          135                       # number of demand (read+write) MSHR hits
system.cpu0.dcache.overall_mshr_hits::cpu0.data          135                       # number of overall MSHR hits
system.cpu0.dcache.overall_mshr_hits::total          135                       # number of overall MSHR hits
system.cpu0.dcache.ReadReq_mshr_misses::cpu0.data          193                       # number of ReadReq MSHR misses
system.cpu0.dcache.ReadReq_mshr_misses::total          193                       # number of ReadReq MSHR misses
system.cpu0.dcache.WriteReq_mshr_misses::cpu0.data         4386                       # number of WriteReq MSHR misses
system.cpu0.dcache.WriteReq_mshr_misses::total         4386                       # number of WriteReq MSHR misses
system.cpu0.dcache.demand_mshr_misses::cpu0.data         4579                       # number of demand (read+write) MSHR misses
system.cpu0.dcache.demand_mshr_misses::total         4579                       # number of demand (read+write) MSHR misses
system.cpu0.dcache.overall_mshr_misses::cpu0.data         4579                       # number of overall MSHR misses
system.cpu0.dcache.overall_mshr_misses::total         4579                       # number of overall MSHR misses
system.cpu0.dcache.ReadReq_mshr_miss_latency::cpu0.data     13983003                       # number of ReadReq MSHR miss cycles
system.cpu0.dcache.ReadReq_mshr_miss_latency::total     13983003                       # number of ReadReq MSHR miss cycles
system.cpu0.dcache.WriteReq_mshr_miss_latency::cpu0.data    247058694                       # number of WriteReq MSHR miss cycles
system.cpu0.dcache.WriteReq_mshr_miss_latency::total    247058694                       # number of WriteReq MSHR miss cycles
system.cpu0.dcache.demand_mshr_miss_latency::cpu0.data    261041697                       # number of demand (read+write) MSHR miss cycles
system.cpu0.dcache.demand_mshr_miss_latency::total    261041697                       # number of demand (read+write) MSHR miss cycles
system.cpu0.dcache.overall_mshr_miss_latency::cpu0.data    261041697                       # number of overall MSHR miss cycles
system.cpu0.dcache.overall_mshr_miss_latency::total    261041697                       # number of overall MSHR miss cycles
system.cpu0.dcache.ReadReq_mshr_miss_rate::cpu0.data     0.013994                       # mshr miss rate for ReadReq accesses
system.cpu0.dcache.ReadReq_mshr_miss_rate::total     0.013994                       # mshr miss rate for ReadReq accesses
system.cpu0.dcache.WriteReq_mshr_miss_rate::cpu0.data     0.107889                       # mshr miss rate for WriteReq accesses
system.cpu0.dcache.WriteReq_mshr_miss_rate::total     0.107889                       # mshr miss rate for WriteReq accesses
system.cpu0.dcache.demand_mshr_miss_rate::cpu0.data     0.084103                       # mshr miss rate for demand accesses
system.cpu0.dcache.demand_mshr_miss_rate::total     0.084103                       # mshr miss rate for demand accesses
system.cpu0.dcache.overall_mshr_miss_rate::cpu0.data     0.084103                       # mshr miss rate for overall accesses
system.cpu0.dcache.overall_mshr_miss_rate::total     0.084103                       # mshr miss rate for overall accesses
system.cpu0.dcache.ReadReq_avg_mshr_miss_latency::cpu0.data 72450.792746                       # average ReadReq mshr miss latency
system.cpu0.dcache.ReadReq_avg_mshr_miss_latency::total 72450.792746                       # average ReadReq mshr miss latency
system.cpu0.dcache.WriteReq_avg_mshr_miss_latency::cpu0.data 56328.931601                       # average WriteReq mshr miss latency
system.cpu0.dcache.WriteReq_avg_mshr_miss_latency::total 56328.931601                       # average WriteReq mshr miss latency
system.cpu0.dcache.demand_avg_mshr_miss_latency::cpu0.data 57008.450972                       # average overall mshr miss latency
system.cpu0.dcache.demand_avg_mshr_miss_latency::total 57008.450972                       # average overall mshr miss latency
system.cpu0.dcache.overall_avg_mshr_miss_latency::cpu0.data 57008.450972                       # average overall mshr miss latency
system.cpu0.dcache.overall_avg_mshr_miss_latency::total 57008.450972                       # average overall mshr miss latency
system.cpu0.dtb_walker_cache.tags.pwrStateResidencyTicks::UNDEFINED    308855502                       # Cumulative time (in ticks) in various power states
system.cpu0.dtb_walker_cache.tags.replacements            0                       # number of replacements
system.cpu0.dtb_walker_cache.tags.tagsinuse            0                       # Cycle average of tags in use
system.cpu0.dtb_walker_cache.tags.total_refs            0                       # Total number of references to valid blocks.
system.cpu0.dtb_walker_cache.tags.sampled_refs            0                       # Sample count of references to valid blocks.
system.cpu0.dtb_walker_cache.tags.avg_refs          nan                       # Average number of references to valid blocks.
system.cpu0.dtb_walker_cache.tags.warmup_cycle            0                       # Cycle when the warmup percentage was hit.
system.cpu0.dtb_walker_cache.tags.tag_accesses            0                       # Number of tag accesses
system.cpu0.dtb_walker_cache.tags.data_accesses            0                       # Number of data accesses
system.cpu0.dtb_walker_cache.pwrStateResidencyTicks::UNDEFINED    308855502                       # Cumulative time (in ticks) in various power states
system.cpu0.dtb_walker_cache.blocked_cycles::no_mshrs            0                       # number of cycles access was blocked
system.cpu0.dtb_walker_cache.blocked_cycles::no_targets            0                       # number of cycles access was blocked
system.cpu0.dtb_walker_cache.blocked::no_mshrs            0                       # number of cycles access was blocked
system.cpu0.dtb_walker_cache.blocked::no_targets            0                       # number of cycles access was blocked
system.cpu0.dtb_walker_cache.avg_blocked_cycles::no_mshrs          nan                       # average number of cycles each access was blocked
system.cpu0.dtb_walker_cache.avg_blocked_cycles::no_targets          nan                       # average number of cycles each access was blocked
system.cpu0.icache.tags.pwrStateResidencyTicks::UNDEFINED    308855502                       # Cumulative time (in ticks) in various power states
system.cpu0.icache.tags.replacements              329                       # number of replacements
system.cpu0.icache.tags.tagsinuse          485.120958                       # Cycle average of tags in use
system.cpu0.icache.tags.total_refs              21786                       # Total number of references to valid blocks.
system.cpu0.icache.tags.sampled_refs              840                       # Sample count of references to valid blocks.
system.cpu0.icache.tags.avg_refs            25.935714                       # Average number of references to valid blocks.
system.cpu0.icache.tags.warmup_cycle            75591                       # Cycle when the warmup percentage was hit.
system.cpu0.icache.tags.occ_blocks::cpu0.inst   485.120958                       # Average occupied blocks per requestor
system.cpu0.icache.tags.occ_percent::cpu0.inst     0.947502                       # Average percentage of cache occupancy
system.cpu0.icache.tags.occ_percent::total     0.947502                       # Average percentage of cache occupancy
system.cpu0.icache.tags.occ_task_id_blocks::1024          511                       # Occupied blocks per task id
system.cpu0.icache.tags.age_task_id_blocks_1024::1           10                       # Occupied blocks per task id
system.cpu0.icache.tags.age_task_id_blocks_1024::2          501                       # Occupied blocks per task id
system.cpu0.icache.tags.occ_task_id_percent::1024     0.998047                       # Percentage of cache occupancy per task id
system.cpu0.icache.tags.tag_accesses           183472                       # Number of tag accesses
system.cpu0.icache.tags.data_accesses          183472                       # Number of data accesses
system.cpu0.icache.pwrStateResidencyTicks::UNDEFINED    308855502                       # Cumulative time (in ticks) in various power states
system.cpu0.icache.ReadReq_hits::cpu0.inst        21786                       # number of ReadReq hits
system.cpu0.icache.ReadReq_hits::total          21786                       # number of ReadReq hits
system.cpu0.icache.demand_hits::cpu0.inst        21786                       # number of demand (read+write) hits
system.cpu0.icache.demand_hits::total           21786                       # number of demand (read+write) hits
system.cpu0.icache.overall_hits::cpu0.inst        21786                       # number of overall hits
system.cpu0.icache.overall_hits::total          21786                       # number of overall hits
system.cpu0.icache.ReadReq_misses::cpu0.inst         1043                       # number of ReadReq misses
system.cpu0.icache.ReadReq_misses::total         1043                       # number of ReadReq misses
system.cpu0.icache.demand_misses::cpu0.inst         1043                       # number of demand (read+write) misses
system.cpu0.icache.demand_misses::total          1043                       # number of demand (read+write) misses
system.cpu0.icache.overall_misses::cpu0.inst         1043                       # number of overall misses
system.cpu0.icache.overall_misses::total         1043                       # number of overall misses
system.cpu0.icache.ReadReq_miss_latency::cpu0.inst     60255681                       # number of ReadReq miss cycles
system.cpu0.icache.ReadReq_miss_latency::total     60255681                       # number of ReadReq miss cycles
system.cpu0.icache.demand_miss_latency::cpu0.inst     60255681                       # number of demand (read+write) miss cycles
system.cpu0.icache.demand_miss_latency::total     60255681                       # number of demand (read+write) miss cycles
system.cpu0.icache.overall_miss_latency::cpu0.inst     60255681                       # number of overall miss cycles
system.cpu0.icache.overall_miss_latency::total     60255681                       # number of overall miss cycles
system.cpu0.icache.ReadReq_accesses::cpu0.inst        22829                       # number of ReadReq accesses(hits+misses)
system.cpu0.icache.ReadReq_accesses::total        22829                       # number of ReadReq accesses(hits+misses)
system.cpu0.icache.demand_accesses::cpu0.inst        22829                       # number of demand (read+write) accesses
system.cpu0.icache.demand_accesses::total        22829                       # number of demand (read+write) accesses
system.cpu0.icache.overall_accesses::cpu0.inst        22829                       # number of overall (read+write) accesses
system.cpu0.icache.overall_accesses::total        22829                       # number of overall (read+write) accesses
system.cpu0.icache.ReadReq_miss_rate::cpu0.inst     0.045688                       # miss rate for ReadReq accesses
system.cpu0.icache.ReadReq_miss_rate::total     0.045688                       # miss rate for ReadReq accesses
system.cpu0.icache.demand_miss_rate::cpu0.inst     0.045688                       # miss rate for demand accesses
system.cpu0.icache.demand_miss_rate::total     0.045688                       # miss rate for demand accesses
system.cpu0.icache.overall_miss_rate::cpu0.inst     0.045688                       # miss rate for overall accesses
system.cpu0.icache.overall_miss_rate::total     0.045688                       # miss rate for overall accesses
system.cpu0.icache.ReadReq_avg_miss_latency::cpu0.inst 57771.506232                       # average ReadReq miss latency
system.cpu0.icache.ReadReq_avg_miss_latency::total 57771.506232                       # average ReadReq miss latency
system.cpu0.icache.demand_avg_miss_latency::cpu0.inst 57771.506232                       # average overall miss latency
system.cpu0.icache.demand_avg_miss_latency::total 57771.506232                       # average overall miss latency
system.cpu0.icache.overall_avg_miss_latency::cpu0.inst 57771.506232                       # average overall miss latency
system.cpu0.icache.overall_avg_miss_latency::total 57771.506232                       # average overall miss latency
system.cpu0.icache.blocked_cycles::no_mshrs         1184                       # number of cycles access was blocked
system.cpu0.icache.blocked_cycles::no_targets            0                       # number of cycles access was blocked
system.cpu0.icache.blocked::no_mshrs               19                       # number of cycles access was blocked
system.cpu0.icache.blocked::no_targets              0                       # number of cycles access was blocked
system.cpu0.icache.avg_blocked_cycles::no_mshrs    62.315789                       # average number of cycles each access was blocked
system.cpu0.icache.avg_blocked_cycles::no_targets          nan                       # average number of cycles each access was blocked
system.cpu0.icache.writebacks::writebacks          329                       # number of writebacks
system.cpu0.icache.writebacks::total              329                       # number of writebacks
system.cpu0.icache.ReadReq_mshr_hits::cpu0.inst          203                       # number of ReadReq MSHR hits
system.cpu0.icache.ReadReq_mshr_hits::total          203                       # number of ReadReq MSHR hits
system.cpu0.icache.demand_mshr_hits::cpu0.inst          203                       # number of demand (read+write) MSHR hits
system.cpu0.icache.demand_mshr_hits::total          203                       # number of demand (read+write) MSHR hits
system.cpu0.icache.overall_mshr_hits::cpu0.inst          203                       # number of overall MSHR hits
system.cpu0.icache.overall_mshr_hits::total          203                       # number of overall MSHR hits
system.cpu0.icache.ReadReq_mshr_misses::cpu0.inst          840                       # number of ReadReq MSHR misses
system.cpu0.icache.ReadReq_mshr_misses::total          840                       # number of ReadReq MSHR misses
system.cpu0.icache.demand_mshr_misses::cpu0.inst          840                       # number of demand (read+write) MSHR misses
system.cpu0.icache.demand_mshr_misses::total          840                       # number of demand (read+write) MSHR misses
system.cpu0.icache.overall_mshr_misses::cpu0.inst          840                       # number of overall MSHR misses
system.cpu0.icache.overall_mshr_misses::total          840                       # number of overall MSHR misses
system.cpu0.icache.ReadReq_mshr_miss_latency::cpu0.inst     49653295                       # number of ReadReq MSHR miss cycles
system.cpu0.icache.ReadReq_mshr_miss_latency::total     49653295                       # number of ReadReq MSHR miss cycles
system.cpu0.icache.demand_mshr_miss_latency::cpu0.inst     49653295                       # number of demand (read+write) MSHR miss cycles
system.cpu0.icache.demand_mshr_miss_latency::total     49653295                       # number of demand (read+write) MSHR miss cycles
system.cpu0.icache.overall_mshr_miss_latency::cpu0.inst     49653295                       # number of overall MSHR miss cycles
system.cpu0.icache.overall_mshr_miss_latency::total     49653295                       # number of overall MSHR miss cycles
system.cpu0.icache.ReadReq_mshr_miss_rate::cpu0.inst     0.036795                       # mshr miss rate for ReadReq accesses
system.cpu0.icache.ReadReq_mshr_miss_rate::total     0.036795                       # mshr miss rate for ReadReq accesses
system.cpu0.icache.demand_mshr_miss_rate::cpu0.inst     0.036795                       # mshr miss rate for demand accesses
system.cpu0.icache.demand_mshr_miss_rate::total     0.036795                       # mshr miss rate for demand accesses
system.cpu0.icache.overall_mshr_miss_rate::cpu0.inst     0.036795                       # mshr miss rate for overall accesses
system.cpu0.icache.overall_mshr_miss_rate::total     0.036795                       # mshr miss rate for overall accesses
system.cpu0.icache.ReadReq_avg_mshr_miss_latency::cpu0.inst 59111.065476                       # average ReadReq mshr miss latency
system.cpu0.icache.ReadReq_avg_mshr_miss_latency::total 59111.065476                       # average ReadReq mshr miss latency
system.cpu0.icache.demand_avg_mshr_miss_latency::cpu0.inst 59111.065476                       # average overall mshr miss latency
system.cpu0.icache.demand_avg_mshr_miss_latency::total 59111.065476                       # average overall mshr miss latency
system.cpu0.icache.overall_avg_mshr_miss_latency::cpu0.inst 59111.065476                       # average overall mshr miss latency
system.cpu0.icache.overall_avg_mshr_miss_latency::total 59111.065476                       # average overall mshr miss latency
system.cpu0.itb_walker_cache.tags.pwrStateResidencyTicks::UNDEFINED    308855502                       # Cumulative time (in ticks) in various power states
system.cpu0.itb_walker_cache.tags.replacements            0                       # number of replacements
system.cpu0.itb_walker_cache.tags.tagsinuse            0                       # Cycle average of tags in use
system.cpu0.itb_walker_cache.tags.total_refs            0                       # Total number of references to valid blocks.
system.cpu0.itb_walker_cache.tags.sampled_refs            0                       # Sample count of references to valid blocks.
system.cpu0.itb_walker_cache.tags.avg_refs          nan                       # Average number of references to valid blocks.
system.cpu0.itb_walker_cache.tags.warmup_cycle            0                       # Cycle when the warmup percentage was hit.
system.cpu0.itb_walker_cache.tags.tag_accesses            0                       # Number of tag accesses
system.cpu0.itb_walker_cache.tags.data_accesses            0                       # Number of data accesses
system.cpu0.itb_walker_cache.pwrStateResidencyTicks::UNDEFINED    308855502                       # Cumulative time (in ticks) in various power states
system.cpu0.itb_walker_cache.blocked_cycles::no_mshrs            0                       # number of cycles access was blocked
system.cpu0.itb_walker_cache.blocked_cycles::no_targets            0                       # number of cycles access was blocked
system.cpu0.itb_walker_cache.blocked::no_mshrs            0                       # number of cycles access was blocked
system.cpu0.itb_walker_cache.blocked::no_targets            0                       # number of cycles access was blocked
system.cpu0.itb_walker_cache.avg_blocked_cycles::no_mshrs          nan                       # average number of cycles each access was blocked
system.cpu0.itb_walker_cache.avg_blocked_cycles::no_targets          nan                       # average number of cycles each access was blocked
system.cpu0.l2cache.tags.pwrStateResidencyTicks::UNDEFINED    308855502                       # Cumulative time (in ticks) in various power states
system.cpu0.l2cache.tags.replacements            1284                       # number of replacements
system.cpu0.l2cache.tags.tagsinuse        2568.044569                       # Cycle average of tags in use
system.cpu0.l2cache.tags.total_refs              4468                       # Total number of references to valid blocks.
system.cpu0.l2cache.tags.sampled_refs            5338                       # Sample count of references to valid blocks.
system.cpu0.l2cache.tags.avg_refs            0.837018                       # Average number of references to valid blocks.
system.cpu0.l2cache.tags.warmup_cycle           73000                       # Cycle when the warmup percentage was hit.
system.cpu0.l2cache.tags.occ_blocks::writebacks     1.106020                       # Average occupied blocks per requestor
system.cpu0.l2cache.tags.occ_blocks::cpu0.inst   540.465787                       # Average occupied blocks per requestor
system.cpu0.l2cache.tags.occ_blocks::cpu0.data  2026.472762                       # Average occupied blocks per requestor
system.cpu0.l2cache.tags.occ_percent::writebacks     0.000270                       # Average percentage of cache occupancy
system.cpu0.l2cache.tags.occ_percent::cpu0.inst     0.131950                       # Average percentage of cache occupancy
system.cpu0.l2cache.tags.occ_percent::cpu0.data     0.494744                       # Average percentage of cache occupancy
system.cpu0.l2cache.tags.occ_percent::total     0.626964                       # Average percentage of cache occupancy
system.cpu0.l2cache.tags.occ_task_id_blocks::1024         4054                       # Occupied blocks per task id
system.cpu0.l2cache.tags.age_task_id_blocks_1024::0          138                       # Occupied blocks per task id
system.cpu0.l2cache.tags.age_task_id_blocks_1024::1         1309                       # Occupied blocks per task id
system.cpu0.l2cache.tags.age_task_id_blocks_1024::2         2607                       # Occupied blocks per task id
system.cpu0.l2cache.tags.occ_task_id_percent::1024     0.989746                       # Percentage of cache occupancy per task id
system.cpu0.l2cache.tags.tag_accesses           44570                       # Number of tag accesses
system.cpu0.l2cache.tags.data_accesses          44570                       # Number of data accesses
system.cpu0.l2cache.pwrStateResidencyTicks::UNDEFINED    308855502                       # Cumulative time (in ticks) in various power states
system.cpu0.l2cache.WritebackDirty_hits::writebacks         3933                       # number of WritebackDirty hits
system.cpu0.l2cache.WritebackDirty_hits::total         3933                       # number of WritebackDirty hits
system.cpu0.l2cache.WritebackClean_hits::writebacks          326                       # number of WritebackClean hits
system.cpu0.l2cache.WritebackClean_hits::total          326                       # number of WritebackClean hits
system.cpu0.l2cache.ReadExReq_hits::cpu0.data            6                       # number of ReadExReq hits
system.cpu0.l2cache.ReadExReq_hits::total            6                       # number of ReadExReq hits
system.cpu0.l2cache.ReadCleanReq_hits::cpu0.inst           69                       # number of ReadCleanReq hits
system.cpu0.l2cache.ReadCleanReq_hits::total           69                       # number of ReadCleanReq hits
system.cpu0.l2cache.ReadSharedReq_hits::cpu0.data           14                       # number of ReadSharedReq hits
system.cpu0.l2cache.ReadSharedReq_hits::total           14                       # number of ReadSharedReq hits
system.cpu0.l2cache.demand_hits::cpu0.inst           69                       # number of demand (read+write) hits
system.cpu0.l2cache.demand_hits::cpu0.data           20                       # number of demand (read+write) hits
system.cpu0.l2cache.demand_hits::total             89                       # number of demand (read+write) hits
system.cpu0.l2cache.overall_hits::cpu0.inst           69                       # number of overall hits
system.cpu0.l2cache.overall_hits::cpu0.data           20                       # number of overall hits
system.cpu0.l2cache.overall_hits::total            89                       # number of overall hits
system.cpu0.l2cache.ReadExReq_misses::cpu0.data         4380                       # number of ReadExReq misses
system.cpu0.l2cache.ReadExReq_misses::total         4380                       # number of ReadExReq misses
system.cpu0.l2cache.ReadCleanReq_misses::cpu0.inst          771                       # number of ReadCleanReq misses
system.cpu0.l2cache.ReadCleanReq_misses::total          771                       # number of ReadCleanReq misses
system.cpu0.l2cache.ReadSharedReq_misses::cpu0.data          179                       # number of ReadSharedReq misses
system.cpu0.l2cache.ReadSharedReq_misses::total          179                       # number of ReadSharedReq misses
[...]
system.l3.demand_mshr_miss_latency::cpu0.data    194754940                       # number of demand (read+write) MSHR miss cycles
system.l3.demand_mshr_miss_latency::cpu1.inst     38925204                       # number of demand (read+write) MSHR miss cycles
system.l3.demand_mshr_miss_latency::cpu1.data    193217137                       # number of demand (read+write) MSHR miss cycles
system.l3.demand_mshr_miss_latency::cpu2.inst     39532766                       # number of demand (read+write) MSHR miss cycles
system.l3.demand_mshr_miss_latency::cpu2.data    191965496                       # number of demand (read+write) MSHR miss cycles
system.l3.demand_mshr_miss_latency::cpu3.inst     39896938                       # number of demand (read+write) MSHR miss cycles
system.l3.demand_mshr_miss_latency::cpu3.data    194072252                       # number of demand (read+write) MSHR miss cycles
system.l3.demand_mshr_miss_latency::total    930484149                       # number of demand (read+write) MSHR miss cycles
system.l3.overall_mshr_miss_latency::cpu0.inst     38119416                       # number of overall MSHR miss cycles
system.l3.overall_mshr_miss_latency::cpu0.data    194754940                       # number of overall MSHR miss cycles
system.l3.overall_mshr_miss_latency::cpu1.inst     38925204                       # number of overall MSHR miss cycles
system.l3.overall_mshr_miss_latency::cpu1.data    193217137                       # number of overall MSHR miss cycles
system.l3.overall_mshr_miss_latency::cpu2.inst     39532766                       # number of overall MSHR miss cycles
system.l3.overall_mshr_miss_latency::cpu2.data    191965496                       # number of overall MSHR miss cycles
system.l3.overall_mshr_miss_latency::cpu3.inst     39896938                       # number of overall MSHR miss cycles
system.l3.overall_mshr_miss_latency::cpu3.data    194072252                       # number of overall MSHR miss cycles
system.l3.overall_mshr_miss_latency::total    930484149                       # number of overall MSHR miss cycles
system.l3.ReadExReq_mshr_miss_rate::cpu0.data            1                       # mshr miss rate for ReadExReq accesses
system.l3.ReadExReq_mshr_miss_rate::cpu1.data     0.999546                       # mshr miss rate for ReadExReq accesses
system.l3.ReadExReq_mshr_miss_rate::cpu2.data     0.999774                       # mshr miss rate for ReadExReq accesses
system.l3.ReadExReq_mshr_miss_rate::cpu3.data     0.999769                       # mshr miss rate for ReadExReq accesses
system.l3.ReadExReq_mshr_miss_rate::total     0.999772                       # mshr miss rate for ReadExReq accesses
system.l3.ReadSharedReq_mshr_miss_rate::cpu0.inst     0.997403                       # mshr miss rate for ReadSharedReq accesses
system.l3.ReadSharedReq_mshr_miss_rate::cpu0.data     0.966480                       # mshr miss rate for ReadSharedReq accesses
system.l3.ReadSharedReq_mshr_miss_rate::cpu1.inst     0.996073                       # mshr miss rate for ReadSharedReq accesses
system.l3.ReadSharedReq_mshr_miss_rate::cpu1.data     0.970414                       # mshr miss rate for ReadSharedReq accesses
system.l3.ReadSharedReq_mshr_miss_rate::cpu2.inst     0.998705                       # mshr miss rate for ReadSharedReq accesses
system.l3.ReadSharedReq_mshr_miss_rate::cpu2.data     0.970588                       # mshr miss rate for ReadSharedReq accesses
system.l3.ReadSharedReq_mshr_miss_rate::cpu3.inst     0.998703                       # mshr miss rate for ReadSharedReq accesses
system.l3.ReadSharedReq_mshr_miss_rate::cpu3.data     0.971264                       # mshr miss rate for ReadSharedReq accesses
system.l3.ReadSharedReq_mshr_miss_rate::total     0.992571                       # mshr miss rate for ReadSharedReq accesses
system.l3.demand_mshr_miss_rate::cpu0.inst     0.997403                       # mshr miss rate for demand accesses
system.l3.demand_mshr_miss_rate::cpu0.data     0.998684                       # mshr miss rate for demand accesses
system.l3.demand_mshr_miss_rate::cpu1.inst     0.996073                       # mshr miss rate for demand accesses
system.l3.demand_mshr_miss_rate::cpu1.data     0.998469                       # mshr miss rate for demand accesses
system.l3.demand_mshr_miss_rate::cpu2.inst     0.998705                       # mshr miss rate for demand accesses
system.l3.demand_mshr_miss_rate::cpu2.data     0.998692                       # mshr miss rate for demand accesses
system.l3.demand_mshr_miss_rate::cpu3.inst     0.998703                       # mshr miss rate for demand accesses
system.l3.demand_mshr_miss_rate::cpu3.data     0.998668                       # mshr miss rate for demand accesses
system.l3.demand_mshr_miss_rate::total       0.998498                       # mshr miss rate for demand accesses
system.l3.overall_mshr_miss_rate::cpu0.inst     0.997403                       # mshr miss rate for overall accesses
system.l3.overall_mshr_miss_rate::cpu0.data     0.998684                       # mshr miss rate for overall accesses
system.l3.overall_mshr_miss_rate::cpu1.inst     0.996073                       # mshr miss rate for overall accesses
system.l3.overall_mshr_miss_rate::cpu1.data     0.998469                       # mshr miss rate for overall accesses
system.l3.overall_mshr_miss_rate::cpu2.inst     0.998705                       # mshr miss rate for overall accesses
system.l3.overall_mshr_miss_rate::cpu2.data     0.998692                       # mshr miss rate for overall accesses
system.l3.overall_mshr_miss_rate::cpu3.inst     0.998703                       # mshr miss rate for overall accesses
system.l3.overall_mshr_miss_rate::cpu3.data     0.998668                       # mshr miss rate for overall accesses
system.l3.overall_mshr_miss_rate::total      0.998498                       # mshr miss rate for overall accesses
system.l3.ReadExReq_avg_mshr_miss_latency::cpu0.data 41903.837634                       # average ReadExReq mshr miss latency
system.l3.ReadExReq_avg_mshr_miss_latency::cpu1.data 41584.957045                       # average ReadExReq mshr miss latency
system.l3.ReadExReq_avg_mshr_miss_latency::cpu2.data 41211.308720                       # average ReadExReq mshr miss latency
system.l3.ReadExReq_avg_mshr_miss_latency::cpu3.data 42373.197414                       # average ReadExReq mshr miss latency
system.l3.ReadExReq_avg_mshr_miss_latency::total 41765.304536                       # average ReadExReq mshr miss latency
system.l3.ReadSharedReq_avg_mshr_miss_latency::cpu0.inst 49634.656250                       # average ReadSharedReq mshr miss latency
system.l3.ReadSharedReq_avg_mshr_miss_latency::cpu0.data 65075.346821                       # average ReadSharedReq mshr miss latency
system.l3.ReadSharedReq_avg_mshr_miss_latency::cpu1.inst 51150.070959                       # average ReadSharedReq mshr miss latency
system.l3.ReadSharedReq_avg_mshr_miss_latency::cpu1.data 62459.304878                       # average ReadSharedReq mshr miss latency
system.l3.ReadSharedReq_avg_mshr_miss_latency::cpu2.inst 51274.664073                       # average ReadSharedReq mshr miss latency
system.l3.ReadSharedReq_avg_mshr_miss_latency::cpu2.data 60712.533333                       # average ReadSharedReq mshr miss latency
system.l3.ReadSharedReq_avg_mshr_miss_latency::cpu3.inst 51814.205195                       # average ReadSharedReq mshr miss latency
system.l3.ReadSharedReq_avg_mshr_miss_latency::cpu3.data 62449.313609                       # average ReadSharedReq mshr miss latency
system.l3.ReadSharedReq_avg_mshr_miss_latency::total 53073.292435                       # average ReadSharedReq mshr miss latency
system.l3.demand_avg_mshr_miss_latency::cpu0.inst 49634.656250                       # average overall mshr miss latency
system.l3.demand_avg_mshr_miss_latency::cpu0.data 42784.477153                       # average overall mshr miss latency
system.l3.demand_avg_mshr_miss_latency::cpu1.inst 51150.070959                       # average overall mshr miss latency
system.l3.demand_avg_mshr_miss_latency::cpu1.data 42335.043164                       # average overall mshr miss latency
system.l3.demand_avg_mshr_miss_latency::cpu2.inst 51274.664073                       # average overall mshr miss latency
system.l3.demand_avg_mshr_miss_latency::cpu2.data 41913.863755                       # average overall mshr miss latency
system.l3.demand_avg_mshr_miss_latency::cpu3.inst 51814.205195                       # average overall mshr miss latency
system.l3.demand_avg_mshr_miss_latency::cpu3.data 43127.167111                       # average overall mshr miss latency
system.l3.demand_avg_mshr_miss_latency::total 43754.544766                       # average overall mshr miss latency
system.l3.overall_avg_mshr_miss_latency::cpu0.inst 49634.656250                       # average overall mshr miss latency
system.l3.overall_avg_mshr_miss_latency::cpu0.data 42784.477153                       # average overall mshr miss latency
system.l3.overall_avg_mshr_miss_latency::cpu1.inst 51150.070959                       # average overall mshr miss latency
system.l3.overall_avg_mshr_miss_latency::cpu1.data 42335.043164                       # average overall mshr miss latency
system.l3.overall_avg_mshr_miss_latency::cpu2.inst 51274.664073                       # average overall mshr miss latency
system.l3.overall_avg_mshr_miss_latency::cpu2.data 41913.863755                       # average overall mshr miss latency
system.l3.overall_avg_mshr_miss_latency::cpu3.inst 51814.205195                       # average overall mshr miss latency
system.l3.overall_avg_mshr_miss_latency::cpu3.data 43127.167111                       # average overall mshr miss latency
system.l3.overall_avg_mshr_miss_latency::total 43754.544766                       # average overall mshr miss latency
system.membus.snoop_filter.tot_requests         21265                       # Total number of requests made to the snoop filter.
system.membus.snoop_filter.hit_single_requests            0                       # Number of requests hitting in the snoop filter with a single holder of the requested data.
system.membus.snoop_filter.hit_multi_requests            0                       # Number of requests hitting in the snoop filter with multiple (>1) holders of the requested data.
system.membus.snoop_filter.tot_snoops               0                       # Total number of snoops made to the snoop filter.
system.membus.snoop_filter.hit_single_snoops            0                       # Number of snoops hitting in the snoop filter with a single holder of the requested data.
system.membus.snoop_filter.hit_multi_snoops            0                       # Number of snoops hitting in the snoop filter with multiple (>1) holders of the requested data.
system.membus.pwrStateResidencyTicks::UNDEFINED    308855502                       # Cumulative time (in ticks) in various power states
system.membus.trans_dist::ReadResp               3741                       # Transaction distribution
system.membus.trans_dist::ReadExReq             17524                       # Transaction distribution
system.membus.trans_dist::ReadExResp            17523                       # Transaction distribution
system.membus.trans_dist::ReadSharedReq          3741                       # Transaction distribution
system.membus.pkt_count_system.l3.mem_side::system.mem_ctrls.port        42529                       # Packet count per connected master and slave (bytes)
system.membus.pkt_count_system.l3.mem_side::total        42529                       # Packet count per connected master and slave (bytes)
system.membus.pkt_count::total                  42529                       # Packet count per connected master and slave (bytes)
system.membus.pkt_size_system.l3.mem_side::system.mem_ctrls.port      1360896                       # Cumulative packet size per connected master and slave (bytes)
system.membus.pkt_size_system.l3.mem_side::total      1360896                       # Cumulative packet size per connected master and slave (bytes)
system.membus.pkt_size::total                 1360896                       # Cumulative packet size per connected master and slave (bytes)
system.membus.snoops                                0                       # Total snoops (count)
system.membus.snoopTraffic                          0                       # Total snoop traffic (bytes)
system.membus.snoop_fanout::samples             21265                       # Request fanout histogram
system.membus.snoop_fanout::mean                    0                       # Request fanout histogram
system.membus.snoop_fanout::stdev                   0                       # Request fanout histogram
system.membus.snoop_fanout::underflows              0      0.00%      0.00% # Request fanout histogram
system.membus.snoop_fanout::0                   21265    100.00%    100.00% # Request fanout histogram
system.membus.snoop_fanout::1                       0      0.00%    100.00% # Request fanout histogram
system.membus.snoop_fanout::overflows               0      0.00%    100.00% # Request fanout histogram
system.membus.snoop_fanout::min_value               0                       # Request fanout histogram
system.membus.snoop_fanout::max_value               0                       # Request fanout histogram
system.membus.snoop_fanout::total               21265                       # Request fanout histogram
system.membus.reqLayer8.occupancy            22429001                       # Layer occupancy (ticks)
system.membus.reqLayer8.utilization               7.3                       # Layer utilization (%)
system.membus.respLayer1.occupancy          115157970                       # Layer occupancy (ticks)
system.membus.respLayer1.utilization             37.3                       # Layer utilization (%)
system.tol3bus.snoop_filter.tot_requests        24580                       # Total number of requests made to the snoop filter.
system.tol3bus.snoop_filter.hit_single_requests         3282                       # Number of requests hitting in the snoop filter with a single holder of the requested data.
system.tol3bus.snoop_filter.hit_multi_requests            0                       # Number of requests hitting in the snoop filter with multiple (>1) holders of the requested data.
system.tol3bus.snoop_filter.tot_snoops              0                       # Total number of snoops made to the snoop filter.
system.tol3bus.snoop_filter.hit_single_snoops            0                       # Number of snoops hitting in the snoop filter with a single holder of the requested data.
system.tol3bus.snoop_filter.hit_multi_snoops            0                       # Number of snoops hitting in the snoop filter with multiple (>1) holders of the requested data.
system.tol3bus.pwrStateResidencyTicks::UNDEFINED    308855502                       # Cumulative time (in ticks) in various power states
system.tol3bus.trans_dist::ReadResp              3769                       # Transaction distribution
system.tol3bus.trans_dist::WritebackDirty         2070                       # Transaction distribution
system.tol3bus.trans_dist::CleanEvict            1212                       # Transaction distribution
system.tol3bus.trans_dist::ReadExReq            17529                       # Transaction distribution
system.tol3bus.trans_dist::ReadExResp           17527                       # Transaction distribution
system.tol3bus.trans_dist::ReadSharedReq         3769                       # Transaction distribution
system.tol3bus.pkt_count_system.cpu0.l2cache.mem_side::system.l3.cpu_side        11486                       # Packet count per connected master and slave (bytes)
system.tol3bus.pkt_count_system.cpu1.l2cache.mem_side::system.l3.cpu_side        11510                       # Packet count per connected master and slave (bytes)
system.tol3bus.pkt_count_system.cpu2.l2cache.mem_side::system.l3.cpu_side        11580                       # Packet count per connected master and slave (bytes)
system.tol3bus.pkt_count_system.cpu3.l2cache.mem_side::system.l3.cpu_side        11300                       # Packet count per connected master and slave (bytes)
system.tol3bus.pkt_count::total                 45876                       # Packet count per connected master and slave (bytes)
system.tol3bus.pkt_size_system.cpu0.l2cache.mem_side::system.l3.cpu_side       374976                       # Cumulative packet size per connected master and slave (bytes)
system.tol3bus.pkt_size_system.cpu1.l2cache.mem_side::system.l3.cpu_side       376128                       # Cumulative packet size per connected master and slave (bytes)
system.tol3bus.pkt_size_system.cpu2.l2cache.mem_side::system.l3.cpu_side       377920                       # Cumulative packet size per connected master and slave (bytes)
system.tol3bus.pkt_size_system.cpu3.l2cache.mem_side::system.l3.cpu_side       366400                       # Cumulative packet size per connected master and slave (bytes)
system.tol3bus.pkt_size::total                1495424                       # Cumulative packet size per connected master and slave (bytes)
system.tol3bus.snoops                               0                       # Total snoops (count)
system.tol3bus.snoopTraffic                         0                       # Total snoop traffic (bytes)
system.tol3bus.snoop_fanout::samples            21298                       # Request fanout histogram
system.tol3bus.snoop_fanout::mean                   0                       # Request fanout histogram
system.tol3bus.snoop_fanout::stdev                  0                       # Request fanout histogram
system.tol3bus.snoop_fanout::underflows             0      0.00%      0.00% # Request fanout histogram
system.tol3bus.snoop_fanout::0                  21298    100.00%    100.00% # Request fanout histogram
system.tol3bus.snoop_fanout::1                      0      0.00%    100.00% # Request fanout histogram
system.tol3bus.snoop_fanout::2                      0      0.00%    100.00% # Request fanout histogram
system.tol3bus.snoop_fanout::3                      0      0.00%    100.00% # Request fanout histogram
system.tol3bus.snoop_fanout::4                      0      0.00%    100.00% # Request fanout histogram
system.tol3bus.snoop_fanout::overflows              0      0.00%    100.00% # Request fanout histogram
system.tol3bus.snoop_fanout::min_value              0                       # Request fanout histogram
system.tol3bus.snoop_fanout::max_value              0                       # Request fanout histogram
system.tol3bus.snoop_fanout::total              21298                       # Request fanout histogram
system.tol3bus.reqLayer0.occupancy           36494392                       # Layer occupancy (ticks)
system.tol3bus.reqLayer0.utilization             11.8                       # Layer utilization (%)
system.tol3bus.respLayer0.occupancy          20325984                       # Layer occupancy (ticks)
system.tol3bus.respLayer0.utilization             6.6                       # Layer utilization (%)
system.tol3bus.respLayer1.occupancy          20361577                       # Layer occupancy (ticks)
system.tol3bus.respLayer1.utilization             6.6                       # Layer utilization (%)
system.tol3bus.respLayer2.occupancy          20438961                       # Layer occupancy (ticks)
system.tol3bus.respLayer2.utilization             6.6                       # Layer utilization (%)
system.tol3bus.respLayer3.occupancy          20134350                       # Layer occupancy (ticks)
system.tol3bus.respLayer3.utilization             6.5                       # Layer utilization (%)

---------- End Simulation Statistics   ----------
