
---------- Begin Simulation Statistics ----------
sim_seconds                                  0.000345                       # Number of seconds simulated
sim_ticks                                   345253401                       # Number of ticks simulated
final_tick                                  345253401                       # Number of ticks from beginning of simulation (restored from checkpoints and never reset)
sim_freq                                 1000000000000                       # Frequency of simulated ticks
host_inst_rate                                 162810                       # Simulator instruction rate (inst/s)
host_op_rate                                   345192                       # Simulator op (including micro ops) rate (op/s)
host_tick_rate                               14109104                       # Simulator tick rate (ticks/s)
host_mem_usage                               33869848                       # Number of bytes of host memory used
host_seconds                                    24.47                       # Real time elapsed on the host
sim_insts                                     3984004                       # Number of instructions simulated
sim_ops                                       8446927                       # Number of ops (including micro ops) simulated
system.voltage_domain.voltage                       1                       # Voltage in Volts
system.clk_domain.clock                          1000                       # Clock period in ticks
system.mem_ctrls.pwrStateResidencyTicks::UNDEFINED    345253401                       # Cumulative time (in ticks) in various power states
system.mem_ctrls.bytes_read::cpu0.inst          69632                       # Number of bytes read from this memory
system.mem_ctrls.bytes_read::cpu0.data          78464                       # Number of bytes read from this memory
system.mem_ctrls.bytes_read::cpu1.inst          69120                       # Number of bytes read from this memory
system.mem_ctrls.bytes_read::cpu1.data          78272                       # Number of bytes read from this memory
system.mem_ctrls.bytes_read::cpu2.inst          69120                       # Number of bytes read from this memory
system.mem_ctrls.bytes_read::cpu2.data          78272                       # Number of bytes read from this memory
system.mem_ctrls.bytes_read::cpu3.inst          68992                       # Number of bytes read from this memory
system.mem_ctrls.bytes_read::cpu3.data          78080                       # Number of bytes read from this memory
system.mem_ctrls.bytes_read::total             589952                       # Number of bytes read from this memory
system.mem_ctrls.bytes_inst_read::cpu0.inst        69632                       # Number of instructions bytes read from this memory
system.mem_ctrls.bytes_inst_read::cpu1.inst        69120                       # Number of instructions bytes read from this memory
system.mem_ctrls.bytes_inst_read::cpu2.inst        69120                       # Number of instructions bytes read from this memory
system.mem_ctrls.bytes_inst_read::cpu3.inst        68992                       # Number of instructions bytes read from this memory
system.mem_ctrls.bytes_inst_read::total        276864                       # Number of instructions bytes read from this memory
system.mem_ctrls.num_reads::cpu0.inst            1088                       # Number of read requests responded to by this memory
system.mem_ctrls.num_reads::cpu0.data            1226                       # Number of read requests responded to by this memory
system.mem_ctrls.num_reads::cpu1.inst            1080                       # Number of read requests responded to by this memory
system.mem_ctrls.num_reads::cpu1.data            1223                       # Number of read requests responded to by this memory
system.mem_ctrls.num_reads::cpu2.inst            1080                       # Number of read requests responded to by this memory
system.mem_ctrls.num_reads::cpu2.data            1223                       # Number of read requests responded to by this memory
system.mem_ctrls.num_reads::cpu3.inst            1078                       # Number of read requests responded to by this memory
system.mem_ctrls.num_reads::cpu3.data            1220                       # Number of read requests responded to by this memory
system.mem_ctrls.num_reads::total                9218                       # Number of read requests responded to by this memory
system.mem_ctrls.bw_read::cpu0.inst         201683748                       # Total read bandwidth from this memory (bytes/s)
system.mem_ctrls.bw_read::cpu0.data         227264959                       # Total read bandwidth from this memory (bytes/s)
system.mem_ctrls.bw_read::cpu1.inst         200200779                       # Total read bandwidth from this memory (bytes/s)
system.mem_ctrls.bw_read::cpu1.data         226708846                       # Total read bandwidth from this memory (bytes/s)
system.mem_ctrls.bw_read::cpu2.inst         200200779                       # Total read bandwidth from this memory (bytes/s)
system.mem_ctrls.bw_read::cpu2.data         226708846                       # Total read bandwidth from this memory (bytes/s)
system.mem_ctrls.bw_read::cpu3.inst         199830037                       # Total read bandwidth from this memory (bytes/s)
system.mem_ctrls.bw_read::cpu3.data         226152732                       # Total read bandwidth from this memory (bytes/s)
system.mem_ctrls.bw_read::total            1708750727                       # Total read bandwidth from this memory (bytes/s)
system.mem_ctrls.bw_inst_read::cpu0.inst    201683748                       # Instruction read bandwidth from this memory (bytes/s)
system.mem_ctrls.bw_inst_read::cpu1.inst    200200779                       # Instruction read bandwidth from this memory (bytes/s)
system.mem_ctrls.bw_inst_read::cpu2.inst    200200779                       # Instruction read bandwidth from this memory (bytes/s)
system.mem_ctrls.bw_inst_read::cpu3.inst    199830037                       # Instruction read bandwidth from this memory (bytes/s)
system.mem_ctrls.bw_inst_read::total        801915344                       # Instruction read bandwidth from this memory (bytes/s)
system.mem_ctrls.bw_total::cpu0.inst        201683748                       # Total bandwidth to/from this memory (bytes/s)
system.mem_ctrls.bw_total::cpu0.data        227264959                       # Total bandwidth to/from this memory (bytes/s)
system.mem_ctrls.bw_total::cpu1.inst        200200779                       # Total bandwidth to/from this memory (bytes/s)
system.mem_ctrls.bw_total::cpu1.data        226708846                       # Total bandwidth to/from this memory (bytes/s)
system.mem_ctrls.bw_total::cpu2.inst        200200779                       # Total bandwidth to/from this memory (bytes/s)
system.mem_ctrls.bw_total::cpu2.data        226708846                       # Total bandwidth to/from this memory (bytes/s)
system.mem_ctrls.bw_total::cpu3.inst        199830037                       # Total bandwidth to/from this memory (bytes/s)
system.mem_ctrls.bw_total::cpu3.data        226152732                       # Total bandwidth to/from this memory (bytes/s)
system.mem_ctrls.bw_total::total           1708750727                       # Total bandwidth to/from this memory (bytes/s)
system.pwrStateResidencyTicks::UNDEFINED    345253401                       # Cumulative time (in ticks) in various power states
system.cpu0.branchPred.lookups                 472568                       # Number of BP lookups
system.cpu0.branchPred.condPredicted           472568                       # Number of conditional branches predicted
system.cpu0.branchPred.condIncorrect            20326                       # Number of conditional branches incorrect
system.cpu0.branchPred.BTBLookups              300028                       # Number of BTB lookups
system.cpu0.branchPred.BTBHits                      0                       # Number of BTB hits
system.cpu0.branchPred.BTBCorrect                   0                       # Number of correct BTB predictions (this stat may not work properly.
system.cpu0.branchPred.BTBHitPct             0.000000                       # BTB Hit Percentage
system.cpu0.branchPred.usedRAS                  13678                       # Number of times the RAS was used to get a target.
system.cpu0.branchPred.RASInCorrect               950                       # Number of incorrect RAS predictions.
system.cpu0.branchPred.indirectLookups         300028                       # Number of indirect predictor lookups.
system.cpu0.branchPred.indirectHits            164887                       # Number of indirect target hits.
system.cpu0.branchPred.indirectMisses          135141                       # Number of indirect misses.
system.cpu0.branchPredindirectMispredicted         8352                       # Number of mispredicted indirect branches.
system.cpu_voltage_domain.voltage                   1                       # Voltage in Volts
system.cpu_clk_domain.clock                       333                       # Clock period in ticks
system.cpu0.dtb.walker.pwrStateResidencyTicks::UNDEFINED    345253401                       # Cumulative time (in ticks) in various power states
system.cpu0.dtb.rdAccesses                     187367                       # TLB accesses on read requests
system.cpu0.dtb.wrAccesses                      43482                       # TLB accesses on write requests
system.cpu0.dtb.rdMisses                          425                       # TLB misses on read requests
system.cpu0.dtb.wrMisses                          238                       # TLB misses on write requests
system.cpu0.apic_clk_domain.clock                5328                       # Clock period in ticks
system.cpu0.interrupts.pwrStateResidencyTicks::UNDEFINED    345253401                       # Cumulative time (in ticks) in various power states
system.cpu0.itb.walker.pwrStateResidencyTicks::UNDEFINED    345253401                       # Cumulative time (in ticks) in various power states
system.cpu0.itb.rdAccesses                          0                       # TLB accesses on read requests
system.cpu0.itb.wrAccesses                     224788                       # TLB accesses on write requests
system.cpu0.itb.rdMisses                            0                       # TLB misses on read requests
system.cpu0.itb.wrMisses                          176                       # TLB misses on write requests
system.cpu0.workload.numSyscalls                   15                       # Number of system calls
system.cpu0.pwrStateResidencyTicks::ON      345253401                       # Cumulative time (in ticks) in various power states
system.cpu0.numCycles                         1036798                       # number of cpu cycles simulated
system.cpu0.numWorkItemsStarted                     0                       # number of work items this cpu started
system.cpu0.numWorkItemsCompleted                   0                       # number of work items this cpu completed
system.cpu0.fetch.icacheStallCycles            269032                       # Number of cycles fetch is stalled on an Icache miss
system.cpu0.fetch.Insts                       1506343                       # Number of instructions fetch has processed
system.cpu0.fetch.Branches                     472568                       # Number of branches that fetch encountered
system.cpu0.fetch.predictedBranches            178565                       # Number of branches that fetch has predicted taken
system.cpu0.fetch.Cycles                       657157                       # Number of cycles fetch has run and was not squashing or blocked
system.cpu0.fetch.SquashCycles                  40784                       # Number of cycles fetch has spent squashing
system.cpu0.fetch.MiscStallCycles                  41                       # Number of cycles fetch has spent waiting on interrupts, or bad addresses, or out of MSHRs
system.cpu0.fetch.PendingTrapStallCycles          449                       # Number of stall cycles due to pending traps
system.cpu0.fetch.PendingQuiesceStallCycles            6                       # Number of stall cycles due to pending quiesce instructions
system.cpu0.fetch.IcacheWaitRetryStallCycles          151                       # Number of stall cycles due to full MSHR
system.cpu0.fetch.CacheLines                   224710                       # Number of cache lines fetched
system.cpu0.fetch.IcacheSquashes                 5430                       # Number of outstanding Icache misses that were squashed
system.cpu0.fetch.rateDist::samples            947228                       # Number of instructions fetched each cycle (Total)
system.cpu0.fetch.rateDist::mean             3.335024                       # Number of instructions fetched each cycle (Total)
system.cpu0.fetch.rateDist::stdev            3.515011                       # Number of instructions fetched each cycle (Total)
system.cpu0.fetch.rateDist::underflows              0      0.00%      0.00% # Number of instructions fetched each cycle (Total)
system.cpu0.fetch.rateDist::0                  451810     47.70%     47.70% # Number of instructions fetched each cycle (Total)
system.cpu0.fetch.rateDist::1                   13048      1.38%     49.08% # Number of instructions fetched each cycle (Total)
system.cpu0.fetch.rateDist::2                   17954      1.90%     50.97% # Number of instructions fetched each cycle (Total)
system.cpu0.fetch.rateDist::3                   47520      5.02%     55.99% # Number of instructions fetched each cycle (Total)
system.cpu0.fetch.rateDist::4                   22289      2.35%     58.34% # Number of instructions fetched each cycle (Total)
system.cpu0.fetch.rateDist::5                   35709      3.77%     62.11% # Number of instructions fetched each cycle (Total)
system.cpu0.fetch.rateDist::6                   38970      4.11%     66.22% # Number of instructions fetched each cycle (Total)
system.cpu0.fetch.rateDist::7                   93433      9.86%     76.09% # Number of instructions fetched each cycle (Total)
system.cpu0.fetch.rateDist::8                  226495     23.91%    100.00% # Number of instructions fetched each cycle (Total)
system.cpu0.fetch.rateDist::overflows               0      0.00%    100.00% # Number of instructions fetched each cycle (Total)
system.cpu0.fetch.rateDist::min_value               0                       # Number of instructions fetched each cycle (Total)
system.cpu0.fetch.rateDist::max_value               8                       # Number of instructions fetched each cycle (Total)
system.cpu0.fetch.rateDist::total              947228                       # Number of instructions fetched each cycle (Total)
system.cpu0.fetch.branchRate                 0.455796                       # Number of branch fetches per cycle
system.cpu0.fetch.rate                       1.452880                       # Number of inst fetches per cycle
system.cpu0.decode.IdleCycles                  243621                       # Number of cycles decode is idle
system.cpu0.decode.BlockedCycles               227255                       # Number of cycles decode is blocked
system.cpu0.decode.RunCycles                   432161                       # Number of cycles decode is running
system.cpu0.decode.UnblockCycles                23799                       # Number of cycles decode is unblocking
system.cpu0.decode.SquashCycles                 20392                       # Number of cycles decode is squashing
system.cpu0.decode.DecodedInsts               3039418                       # Number of instructions handled by decode
system.cpu0.rename.SquashCycles                 20392                       # Number of cycles rename is squashing
system.cpu0.rename.IdleCycles                  259242                       # Number of cycles rename is idle
system.cpu0.rename.BlockCycles                 132779                       # Number of cycles rename is blocking
system.cpu0.rename.serializeStallCycles          3975                       # count of cycles rename stalled for serializing inst
system.cpu0.rename.RunCycles                   435031                       # Number of cycles rename is running
system.cpu0.rename.UnblockCycles                95809                       # Number of cycles rename is unblocking
system.cpu0.rename.RenamedInsts               2942588                       # Number of instructions processed by rename
system.cpu0.rename.ROBFullEvents                  443                       # Number of times rename has blocked due to ROB full
system.cpu0.rename.IQFullEvents                  3812                       # Number of times rename has blocked due to IQ full
system.cpu0.rename.SQFullEvents                 85925                       # Number of times rename has blocked due to SQ full
system.cpu0.rename.RenamedOperands            3565609                       # Number of destination operands rename has renamed
system.cpu0.rename.RenameLookups              6957028                       # Number of register rename lookups that rename has made
system.cpu0.rename.int_rename_lookups         3411943                       # Number of integer rename lookups
system.cpu0.rename.fp_rename_lookups            43512                       # Number of floating rename lookups
system.cpu0.rename.CommittedMaps              2569627                       # Number of HB maps that are committed
system.cpu0.rename.UndoneMaps                  995982                       # Number of HB maps that are undone due to squashing
system.cpu0.rename.serializingInsts                35                       # count of serializing insts renamed
system.cpu0.rename.tempSerializingInsts            34                       # count of temporary serializing insts renamed
system.cpu0.rename.skidInsts                    60611                       # count of insts added to the skid buffer
system.cpu0.memDep0.insertedLoads              206501                       # Number of loads inserted to the mem dependence unit.
system.cpu0.memDep0.insertedStores              54231                       # Number of stores inserted to the mem dependence unit.
system.cpu0.memDep0.conflictingLoads             4396                       # Number of conflicting loads.
system.cpu0.memDep0.conflictingStores            2460                       # Number of conflicting stores.
system.cpu0.iq.iqInstsAdded                   2738220                       # Number of instructions added to the IQ (excludes non-spec)
system.cpu0.iq.iqNonSpecInstsAdded                435                       # Number of non-speculative instructions added to the IQ
system.cpu0.iq.iqInstsIssued                  2559333                       # Number of instructions issued
system.cpu0.iq.iqSquashedInstsIssued            22581                       # Number of squashed instructions issued
system.cpu0.iq.iqSquashedInstsExamined         626788                       # Number of squashed instructions iterated over during squash; mainly for profiling
system.cpu0.iq.iqSquashedOperandsExamined       767047                       # Number of squashed operands that are examined and possibly removed from graph
system.cpu0.iq.iqSquashedNonSpecRemoved           408                       # Number of squashed non-spec instructions that were removed
system.cpu0.iq.issued_per_cycle::samples       947228                       # Number of insts issued each cycle
system.cpu0.iq.issued_per_cycle::mean        2.701919                       # Number of insts issued each cycle
system.cpu0.iq.issued_per_cycle::stdev       2.619923                       # Number of insts issued each cycle
system.cpu0.iq.issued_per_cycle::underflows            0      0.00%      0.00% # Number of insts issued each cycle
system.cpu0.iq.issued_per_cycle::0             366017     38.64%     38.64% # Number of insts issued each cycle
system.cpu0.iq.issued_per_cycle::1              38089      4.02%     42.66% # Number of insts issued each cycle
system.cpu0.iq.issued_per_cycle::2              85124      8.99%     51.65% # Number of insts issued each cycle
system.cpu0.iq.issued_per_cycle::3             100269     10.59%     62.23% # Number of insts issued each cycle
system.cpu0.iq.issued_per_cycle::4              51461      5.43%     67.67% # Number of insts issued each cycle
system.cpu0.iq.issued_per_cycle::5              84502      8.92%     76.59% # Number of insts issued each cycle
system.cpu0.iq.issued_per_cycle::6             145656     15.38%     91.96% # Number of insts issued each cycle
system.cpu0.iq.issued_per_cycle::7              60981      6.44%     98.40% # Number of insts issued each cycle
system.cpu0.iq.issued_per_cycle::8              15129      1.60%    100.00% # Number of insts issued each cycle
system.cpu0.iq.issued_per_cycle::overflows            0      0.00%    100.00% # Number of insts issued each cycle
system.cpu0.iq.issued_per_cycle::min_value            0                       # Number of insts issued each cycle
system.cpu0.iq.issued_per_cycle::max_value            8                       # Number of insts issued each cycle
system.cpu0.iq.issued_per_cycle::total         947228                       # Number of insts issued each cycle
system.cpu0.iq.fu_full::No_OpClass                  0      0.00%      0.00% # attempts to use FU when none available
system.cpu0.iq.fu_full::IntAlu                 115212     99.38%     99.38% # attempts to use FU when none available
system.cpu0.iq.fu_full::IntMult                     0      0.00%     99.38% # attempts to use FU when none available
system.cpu0.iq.fu_full::IntDiv                      0      0.00%     99.38% # attempts to use FU when none available
system.cpu0.iq.fu_full::FloatAdd                  105      0.09%     99.47% # attempts to use FU when none available
system.cpu0.iq.fu_full::FloatCmp                    0      0.00%     99.47% # attempts to use FU when none available
system.cpu0.iq.fu_full::FloatCvt                    0      0.00%     99.47% # attempts to use FU when none available
system.cpu0.iq.fu_full::FloatMult                   0      0.00%     99.47% # attempts to use FU when none available
system.cpu0.iq.fu_full::FloatMultAcc                0      0.00%     99.47% # attempts to use FU when none available
system.cpu0.iq.fu_full::FloatDiv                    0      0.00%     99.47% # attempts to use FU when none available
system.cpu0.iq.fu_full::FloatMisc                   0      0.00%     99.47% # attempts to use FU when none available
system.cpu0.iq.fu_full::FloatSqrt                   0      0.00%     99.47% # attempts to use FU when none available
system.cpu0.iq.fu_full::SimdAdd                     0      0.00%     99.47% # attempts to use FU when none available
system.cpu0.iq.fu_full::SimdAddAcc                  0      0.00%     99.47% # attempts to use FU when none available
system.cpu0.iq.fu_full::SimdAlu                     0      0.00%     99.47% # attempts to use FU when none available
system.cpu0.iq.fu_full::SimdCmp                     0      0.00%     99.47% # attempts to use FU when none available
system.cpu0.iq.fu_full::SimdCvt                     0      0.00%     99.47% # attempts to use FU when none available
system.cpu0.iq.fu_full::SimdMisc                    0      0.00%     99.47% # attempts to use FU when none available
system.cpu0.iq.fu_full::SimdMult                    0      0.00%     99.47% # attempts to use FU when none available
system.cpu0.iq.fu_full::SimdMultAcc                 0      0.00%     99.47% # attempts to use FU when none available
system.cpu0.iq.fu_full::SimdShift                   0      0.00%     99.47% # attempts to use FU when none available
system.cpu0.iq.fu_full::SimdShiftAcc                0      0.00%     99.47% # attempts to use FU when none available
system.cpu0.iq.fu_full::SimdSqrt                    0      0.00%     99.47% # attempts to use FU when none available
system.cpu0.iq.fu_full::SimdFloatAdd                0      0.00%     99.47% # attempts to use FU when none available
system.cpu0.iq.fu_full::SimdFloatAlu                0      0.00%     99.47% # attempts to use FU when none available
system.cpu0.iq.fu_full::SimdFloatCmp                0      0.00%     99.47% # attempts to use FU when none available
system.cpu0.iq.fu_full::SimdFloatCvt                0      0.00%     99.47% # attempts to use FU when none available
system.cpu0.iq.fu_full::SimdFloatDiv                0      0.00%     99.47% # attempts to use FU when none available
system.cpu0.iq.fu_full::SimdFloatMisc               0      0.00%     99.47% # attempts to use FU when none available
system.cpu0.iq.fu_full::SimdFloatMult               0      0.00%     99.47% # attempts to use FU when none available
system.cpu0.iq.fu_full::SimdFloatMultAcc            0      0.00%     99.47% # attempts to use FU when none available
system.cpu0.iq.fu_full::SimdFloatSqrt               0      0.00%     99.47% # attempts to use FU when none available
system.cpu0.iq.fu_full::MemRead                   242      0.21%     99.67% # attempts to use FU when none available
system.cpu0.iq.fu_full::MemWrite                  190      0.16%     99.84% # attempts to use FU when none available
system.cpu0.iq.fu_full::FloatMemRead               49      0.04%     99.88% # attempts to use FU when none available
system.cpu0.iq.fu_full::FloatMemWrite             138      0.12%    100.00% # attempts to use FU when none available
system.cpu0.iq.fu_full::IprAccess                   0      0.00%    100.00% # attempts to use FU when none available
system.cpu0.iq.fu_full::InstPrefetch                0      0.00%    100.00% # attempts to use FU when none available
system.cpu0.iq.FU_type_0::No_OpClass            11294      0.44%      0.44% # Type of FU issued
system.cpu0.iq.FU_type_0::IntAlu              2290625     89.50%     89.94% # Type of FU issued
system.cpu0.iq.FU_type_0::IntMult                 263      0.01%     89.95% # Type of FU issued
system.cpu0.iq.FU_type_0::IntDiv                 5402      0.21%     90.16% # Type of FU issued
system.cpu0.iq.FU_type_0::FloatAdd              10955      0.43%     90.59% # Type of FU issued
system.cpu0.iq.FU_type_0::FloatCmp                  0      0.00%     90.59% # Type of FU issued
system.cpu0.iq.FU_type_0::FloatCvt                  0      0.00%     90.59% # Type of FU issued
system.cpu0.iq.FU_type_0::FloatMult                 0      0.00%     90.59% # Type of FU issued
system.cpu0.iq.FU_type_0::FloatMultAcc              0      0.00%     90.59% # Type of FU issued
system.cpu0.iq.FU_type_0::FloatDiv                  0      0.00%     90.59% # Type of FU issued
system.cpu0.iq.FU_type_0::FloatMisc                 0      0.00%     90.59% # Type of FU issued
system.cpu0.iq.FU_type_0::FloatSqrt                 0      0.00%     90.59% # Type of FU issued
system.cpu0.iq.FU_type_0::SimdAdd                   0      0.00%     90.59% # Type of FU issued
system.cpu0.iq.FU_type_0::SimdAddAcc                0      0.00%     90.59% # Type of FU issued
system.cpu0.iq.FU_type_0::SimdAlu                   0      0.00%     90.59% # Type of FU issued
system.cpu0.iq.FU_type_0::SimdCmp                   0      0.00%     90.59% # Type of FU issued
system.cpu0.iq.FU_type_0::SimdCvt                   0      0.00%     90.59% # Type of FU issued
system.cpu0.iq.FU_type_0::SimdMisc                  0      0.00%     90.59% # Type of FU issued
system.cpu0.iq.FU_type_0::SimdMult                  0      0.00%     90.59% # Type of FU issued
system.cpu0.iq.FU_type_0::SimdMultAcc               0      0.00%     90.59% # Type of FU issued
system.cpu0.iq.FU_type_0::SimdShift                 0      0.00%     90.59% # Type of FU issued
system.cpu0.iq.FU_type_0::SimdShiftAcc              0      0.00%     90.59% # Type of FU issued
system.cpu0.iq.FU_type_0::SimdSqrt                  0      0.00%     90.59% # Type of FU issued
system.cpu0.iq.FU_type_0::SimdFloatAdd              0      0.00%     90.59% # Type of FU issued
system.cpu0.iq.FU_type_0::SimdFloatAlu              0      0.00%     90.59% # Type of FU issued
system.cpu0.iq.FU_type_0::SimdFloatCmp              0      0.00%     90.59% # Type of FU issued
system.cpu0.iq.FU_type_0::SimdFloatCvt              0      0.00%     90.59% # Type of FU issued
system.cpu0.iq.FU_type_0::SimdFloatDiv              0      0.00%     90.59% # Type of FU issued
system.cpu0.iq.FU_type_0::SimdFloatMisc             0      0.00%     90.59% # Type of FU issued
system.cpu0.iq.FU_type_0::SimdFloatMult             0      0.00%     90.59% # Type of FU issued
system.cpu0.iq.FU_type_0::SimdFloatMultAcc            0      0.00%     90.59% # Type of FU issued
system.cpu0.iq.FU_type_0::SimdFloatSqrt             0      0.00%     90.59% # Type of FU issued
system.cpu0.iq.FU_type_0::MemRead              188737      7.37%     97.97% # Type of FU issued
system.cpu0.iq.FU_type_0::MemWrite              43054      1.68%     99.65% # Type of FU issued
system.cpu0.iq.FU_type_0::FloatMemRead           5026      0.20%     99.84% # Type of FU issued
system.cpu0.iq.FU_type_0::FloatMemWrite          3977      0.16%    100.00% # Type of FU issued
system.cpu0.iq.FU_type_0::IprAccess                 0      0.00%    100.00% # Type of FU issued
system.cpu0.iq.FU_type_0::InstPrefetch              0      0.00%    100.00% # Type of FU issued
system.cpu0.iq.FU_type_0::total               2559333                       # Type of FU issued
system.cpu0.iq.rate                          2.468497                       # Inst issue rate
system.cpu0.iq.fu_busy_cnt                     115936                       # FU busy when requested
system.cpu0.iq.fu_busy_rate                  0.045299                       # FU busy rate (busy events/executed inst)
system.cpu0.iq.int_inst_queue_reads           6163216                       # Number of integer instruction queue reads
system.cpu0.iq.int_inst_queue_writes          3323847                       # Number of integer instruction queue writes
system.cpu0.iq.int_inst_queue_wakeup_accesses      2477751                       # Number of integer instruction queue wakeup accesses
system.cpu0.iq.fp_inst_queue_reads              41195                       # Number of floating instruction queue reads
system.cpu0.iq.fp_inst_queue_writes             41650                       # Number of floating instruction queue writes
system.cpu0.iq.fp_inst_queue_wakeup_accesses        18524                       # Number of floating instruction queue wakeup accesses
system.cpu0.iq.vec_inst_queue_reads                 0                       # Number of vector instruction queue reads
system.cpu0.iq.vec_inst_queue_writes                0                       # Number of vector instruction queue writes
system.cpu0.iq.vec_inst_queue_wakeup_accesses            0                       # Number of vector instruction queue wakeup accesses
system.cpu0.iq.int_alu_accesses               2643348                       # Number of integer alu accesses
system.cpu0.iq.fp_alu_accesses                  20627                       # Number of floating point alu accesses
system.cpu0.iq.vec_alu_accesses                     0                       # Number of vector alu accesses
system.cpu0.iew.lsq.thread0.forwLoads           13068                       # Number of loads that had data forwarded from stores
system.cpu0.iew.lsq.thread0.invAddrLoads            0                       # Number of loads ignored due to an invalid address
system.cpu0.iew.lsq.thread0.squashedLoads        53214                       # Number of loads squashed
system.cpu0.iew.lsq.thread0.ignoredResponses          142                       # Number of memory responses ignored because the instruction is squashed
system.cpu0.iew.lsq.thread0.memOrderViolation           55                       # Number of memory ordering violations
system.cpu0.iew.lsq.thread0.squashedStores        20407                       # Number of stores squashed
system.cpu0.iew.lsq.thread0.invAddrSwpfs            0                       # Number of software prefetches ignored due to an invalid address
system.cpu0.iew.lsq.thread0.blockedLoads            0                       # Number of blocked loads due to partial load-store forwarding
system.cpu0.iew.lsq.thread0.rescheduledLoads           17                       # Number of loads that were rescheduled
system.cpu0.iew.lsq.thread0.cacheBlocked           37                       # Number of times an access to memory failed due to the cache being blocked
system.cpu0.iew.iewIdleCycles                       0                       # Number of cycles IEW is idle
system.cpu0.iew.iewSquashCycles                 20392                       # Number of cycles IEW is squashing
system.cpu0.iew.iewBlockCycles                  75869                       # Number of cycles IEW is blocking
system.cpu0.iew.iewUnblockCycles                45703                       # Number of cycles IEW is unblocking
system.cpu0.iew.iewDispatchedInsts            2738655                       # Number of instructions dispatched to IQ
system.cpu0.iew.iewDispSquashedInsts              710                       # Number of squashed instructions skipped by dispatch
system.cpu0.iew.iewDispLoadInsts               206501                       # Number of dispatched load instructions
system.cpu0.iew.iewDispStoreInsts               54231                       # Number of dispatched store instructions
system.cpu0.iew.iewDispNonSpecInsts               169                       # Number of dispatched non-speculative instructions
system.cpu0.iew.iewIQFullEvents                    52                       # Number of times the IQ has become full, causing a stall
system.cpu0.iew.iewLSQFullEvents                45633                       # Number of times the LSQ has become full, causing a stall
system.cpu0.iew.memOrderViolationEvents            55                       # Number of memory order violations
system.cpu0.iew.predictedTakenIncorrect          8883                       # Number of branches that were predicted taken incorrectly
system.cpu0.iew.predictedNotTakenIncorrect        16719                       # Number of branches that were predicted not taken incorrectly
system.cpu0.iew.branchMispredicts               25602                       # Number of branch mispredicts detected at execute
system.cpu0.iew.iewExecutedInsts              2510343                       # Number of executed instructions
system.cpu0.iew.iewExecLoadInsts               187243                       # Number of load instructions executed
system.cpu0.iew.iewExecSquashedInsts            48990                       # Number of squashed instructions skipped in execute
system.cpu0.iew.exec_swp                            0                       # number of swp insts executed
system.cpu0.iew.exec_nop                            0                       # number of nop insts executed
system.cpu0.iew.exec_refs                      230721                       # number of memory reference insts executed
system.cpu0.iew.exec_branches                  362616                       # Number of branches executed
system.cpu0.iew.exec_stores                     43478                       # Number of stores executed
system.cpu0.iew.exec_rate                    2.421246                       # Inst execution rate
system.cpu0.iew.wb_sent                       2502393                       # cumulative count of insts sent to commit
system.cpu0.iew.wb_count                      2496275                       # cumulative count of insts written-back
system.cpu0.iew.wb_producers                  1968115                       # num instructions producing a value
system.cpu0.iew.wb_consumers                  2912010                       # num instructions consuming a value
system.cpu0.iew.wb_rate                      2.407677                       # insts written-back per cycle
system.cpu0.iew.wb_fanout                    0.675861                       # average fanout of values written-back
system.cpu0.commit.commitSquashedInsts         626876                       # The number of squashed insts skipped by commit
system.cpu0.commit.commitNonSpecStalls             27                       # The number of times commit has been forced to stall to communicate backwards
system.cpu0.commit.branchMispredicts            20355                       # The number of times a branch was mispredicted
system.cpu0.commit.committed_per_cycle::samples       857134                       # Number of insts commited each cycle
system.cpu0.commit.committed_per_cycle::mean     2.463870                       # Number of insts commited each cycle
system.cpu0.commit.committed_per_cycle::stdev     2.809185                       # Number of insts commited each cycle
system.cpu0.commit.committed_per_cycle::underflows            0      0.00%      0.00% # Number of insts commited each cycle
system.cpu0.commit.committed_per_cycle::0       333747     38.94%     38.94% # Number of insts commited each cycle
system.cpu0.commit.committed_per_cycle::1        99566     11.62%     50.55% # Number of insts commited each cycle
system.cpu0.commit.committed_per_cycle::2        89259     10.41%     60.97% # Number of insts commited each cycle
system.cpu0.commit.committed_per_cycle::3       106352     12.41%     73.38% # Number of insts commited each cycle
system.cpu0.commit.committed_per_cycle::4        23597      2.75%     76.13% # Number of insts commited each cycle
system.cpu0.commit.committed_per_cycle::5        48426      5.65%     81.78% # Number of insts commited each cycle
system.cpu0.commit.committed_per_cycle::6        19406      2.26%     84.04% # Number of insts commited each cycle
system.cpu0.commit.committed_per_cycle::7        32475      3.79%     87.83% # Number of insts commited each cycle
system.cpu0.commit.committed_per_cycle::8       104306     12.17%    100.00% # Number of insts commited each cycle
system.cpu0.commit.committed_per_cycle::overflows            0      0.00%    100.00% # Number of insts commited each cycle
system.cpu0.commit.committed_per_cycle::min_value            0                       # Number of insts commited each cycle
system.cpu0.commit.committed_per_cycle::max_value            8                       # Number of insts commited each cycle
system.cpu0.commit.committed_per_cycle::total       857134                       # Number of insts commited each cycle
system.cpu0.commit.committedInsts              996055                       # Number of instructions committed
system.cpu0.commit.committedOps               2111867                       # Number of ops (including micro ops) committed
system.cpu0.commit.swp_count                        0                       # Number of s/w prefetches committed
system.cpu0.commit.refs                        187111                       # Number of memory references committed
system.cpu0.commit.loads                       153287                       # Number of loads committed
system.cpu0.commit.membars                          8                       # Number of memory barriers committed
system.cpu0.commit.branches                    329421                       # Number of branches committed
system.cpu0.commit.vec_insts                        0                       # Number of committed Vector instructions.
system.cpu0.commit.fp_insts                      9912                       # Number of committed floating point instructions.
system.cpu0.commit.int_insts                  2100158                       # Number of committed integer instructions.
system.cpu0.commit.function_calls               10580                       # Number of function calls committed.
system.cpu0.commit.op_class_0::No_OpClass         4579      0.22%      0.22% # Class of committed instruction
system.cpu0.commit.op_class_0::IntAlu         1909929     90.44%     90.65% # Class of committed instruction
system.cpu0.commit.op_class_0::IntMult            237      0.01%     90.67% # Class of committed instruction
system.cpu0.commit.op_class_0::IntDiv            5387      0.26%     90.92% # Class of committed instruction
system.cpu0.commit.op_class_0::FloatAdd          4624      0.22%     91.14% # Class of committed instruction
system.cpu0.commit.op_class_0::FloatCmp             0      0.00%     91.14% # Class of committed instruction
system.cpu0.commit.op_class_0::FloatCvt             0      0.00%     91.14% # Class of committed instruction
system.cpu0.commit.op_class_0::FloatMult            0      0.00%     91.14% # Class of committed instruction
system.cpu0.commit.op_class_0::FloatMultAcc            0      0.00%     91.14% # Class of committed instruction
system.cpu0.commit.op_class_0::FloatDiv             0      0.00%     91.14% # Class of committed instruction
system.cpu0.commit.op_class_0::FloatMisc            0      0.00%     91.14% # Class of committed instruction
system.cpu0.commit.op_class_0::FloatSqrt            0      0.00%     91.14% # Class of committed instruction
system.cpu0.commit.op_class_0::SimdAdd              0      0.00%     91.14% # Class of committed instruction
system.cpu0.commit.op_class_0::SimdAddAcc            0      0.00%     91.14% # Class of committed instruction
system.cpu0.commit.op_class_0::SimdAlu              0      0.00%     91.14% # Class of committed instruction
system.cpu0.commit.op_class_0::SimdCmp              0      0.00%     91.14% # Class of committed instruction
system.cpu0.commit.op_class_0::SimdCvt              0      0.00%     91.14% # Class of committed instruction
system.cpu0.commit.op_class_0::SimdMisc             0      0.00%     91.14% # Class of committed instruction
system.cpu0.commit.op_class_0::SimdMult             0      0.00%     91.14% # Class of committed instruction
system.cpu0.commit.op_class_0::SimdMultAcc            0      0.00%     91.14% # Class of committed instruction
system.cpu0.commit.op_class_0::SimdShift            0      0.00%     91.14% # Class of committed instruction
system.cpu0.commit.op_class_0::SimdShiftAcc            0      0.00%     91.14% # Class of committed instruction
system.cpu0.commit.op_class_0::SimdSqrt             0      0.00%     91.14% # Class of committed instruction
system.cpu0.commit.op_class_0::SimdFloatAdd            0      0.00%     91.14% # Class of committed instruction
system.cpu0.commit.op_class_0::SimdFloatAlu            0      0.00%     91.14% # Class of committed instruction
system.cpu0.commit.op_class_0::SimdFloatCmp            0      0.00%     91.14% # Class of committed instruction
system.cpu0.commit.op_class_0::SimdFloatCvt            0      0.00%     91.14% # Class of committed instruction
system.cpu0.commit.op_class_0::SimdFloatDiv            0      0.00%     91.14% # Class of committed instruction
system.cpu0.commit.op_class_0::SimdFloatMisc            0      0.00%     91.14% # Class of committed instruction
system.cpu0.commit.op_class_0::SimdFloatMult            0      0.00%     91.14% # Class of committed instruction
system.cpu0.commit.op_class_0::SimdFloatMultAcc            0      0.00%     91.14% # Class of committed instruction
system.cpu0.commit.op_class_0::SimdFloatSqrt            0      0.00%     91.14% # Class of committed instruction
system.cpu0.commit.op_class_0::MemRead         152027      7.20%     98.34% # Class of committed instruction
system.cpu0.commit.op_class_0::MemWrite         29888      1.42%     99.75% # Class of committed instruction
system.cpu0.commit.op_class_0::FloatMemRead         1260      0.06%     99.81% # Class of committed instruction
system.cpu0.commit.op_class_0::FloatMemWrite         3936      0.19%    100.00% # Class of committed instruction
system.cpu0.commit.op_class_0::IprAccess            0      0.00%    100.00% # Class of committed instruction
system.cpu0.commit.op_class_0::InstPrefetch            0      0.00%    100.00% # Class of committed instruction
system.cpu0.commit.op_class_0::total          2111867                       # Class of committed instruction
system.cpu0.commit.bw_lim_events               104306                       # number cycles where commit BW limit reached
system.cpu0.rob.rob_reads                     3491571                       # The number of ROB reads
system.cpu0.rob.rob_writes                    5568454                       # The number of ROB writes
system.cpu0.timesIdled                            583                       # Number of times that the entire CPU went into an idle state and unscheduled itself
system.cpu0.idleCycles                          89570                       # Total number of cycles that the CPU has spent unscheduled due to idling
system.cpu0.committedInsts                     996055                       # Number of Instructions Simulated
system.cpu0.committedOps                      2111867                       # Number of Ops (including micro ops) Simulated
system.cpu0.cpi                              1.040904                       # CPI: Cycles Per Instruction
system.cpu0.cpi_total                        1.040904                       # CPI: Total CPI of All Threads
system.cpu0.ipc                              0.960703                       # IPC: Instructions Per Cycle
system.cpu0.ipc_total                        0.960703                       # IPC: Total IPC of All Threads
system.cpu0.int_regfile_reads                 2808396                       # number of integer regfile reads
system.cpu0.int_regfile_writes                2081408                       # number of integer regfile writes
system.cpu0.fp_regfile_reads                    26783                       # number of floating regfile reads
system.cpu0.fp_regfile_writes                   14052                       # number of floating regfile writes
system.cpu0.cc_regfile_reads                  1903765                       # number of cc regfile reads
system.cpu0.cc_regfile_writes                  938130                       # number of cc regfile writes
system.cpu0.misc_regfile_reads                 986120                       # number of misc regfile reads
system.cpu0.dcache.tags.pwrStateResidencyTicks::UNDEFINED    345253401                       # Cumulative time (in ticks) in various power states
system.cpu0.dcache.tags.replacements              745                       # number of replacements
system.cpu0.dcache.tags.tagsinuse          459.268017                       # Cycle average of tags in use
system.cpu0.dcache.tags.total_refs             205804                       # Total number of references to valid blocks.
system.cpu0.dcache.tags.sampled_refs             1257                       # Sample count of references to valid blocks.
system.cpu0.dcache.tags.avg_refs           163.726333                       # Average number of references to valid blocks.
system.cpu0.dcache.tags.warmup_cycle           155178                       # Cycle when the warmup percentage was hit.
system.cpu0.dcache.tags.occ_blocks::cpu0.data   459.268017                       # Average occupied blocks per requestor
system.cpu0.dcache.tags.occ_percent::cpu0.data     0.897008                       # Average percentage of cache occupancy
system.cpu0.dcache.tags.occ_percent::total     0.897008                       # Average percentage of cache occupancy
system.cpu0.dcache.tags.occ_task_id_blocks::1024          512                       # Occupied blocks per task id
system.cpu0.dcache.tags.age_task_id_blocks_1024::1            1                       # Occupied blocks per task id
system.cpu0.dcache.tags.age_task_id_blocks_1024::2          511                       # Occupied blocks per task id
system.cpu0.dcache.tags.occ_task_id_percent::1024            1                       # Percentage of cache occupancy per task id
system.cpu0.dcache.tags.tag_accesses          1662849                       # Number of tag accesses
system.cpu0.dcache.tags.data_accesses         1662849                       # Number of data accesses
system.cpu0.dcache.pwrStateResidencyTicks::UNDEFINED    345253401                       # Cumulative time (in ticks) in various power states
system.cpu0.dcache.ReadReq_hits::cpu0.data       172898                       # number of ReadReq hits
system.cpu0.dcache.ReadReq_hits::total         172898                       # number of ReadReq hits
system.cpu0.dcache.WriteReq_hits::cpu0.data        32906                       # number of WriteReq hits
system.cpu0.dcache.WriteReq_hits::total         32906                       # number of WriteReq hits
system.cpu0.dcache.demand_hits::cpu0.data       205804                       # number of demand (read+write) hits
system.cpu0.dcache.demand_hits::total          205804                       # number of demand (read+write) hits
system.cpu0.dcache.overall_hits::cpu0.data       205804                       # number of overall hits
system.cpu0.dcache.overall_hits::total         205804                       # number of overall hits
system.cpu0.dcache.ReadReq_misses::cpu0.data          977                       # number of ReadReq misses
system.cpu0.dcache.ReadReq_misses::total          977                       # number of ReadReq misses
system.cpu0.dcache.WriteReq_misses::cpu0.data          918                       # number of WriteReq misses
system.cpu0.dcache.WriteReq_misses::total          918                       # number of WriteReq misses
system.cpu0.dcache.demand_misses::cpu0.data         1895                       # number of demand (read+write) misses
system.cpu0.dcache.demand_misses::total          1895                       # number of demand (read+write) misses
system.cpu0.dcache.overall_misses::cpu0.data         1895                       # number of overall misses
system.cpu0.dcache.overall_misses::total         1895                       # number of overall misses
system.cpu0.dcache.ReadReq_miss_latency::cpu0.data     64855080                       # number of ReadReq miss cycles
system.cpu0.dcache.ReadReq_miss_latency::total     64855080                       # number of ReadReq miss cycles
system.cpu0.dcache.WriteReq_miss_latency::cpu0.data     56025918                       # number of WriteReq miss cycles
system.cpu0.dcache.WriteReq_miss_latency::total     56025918                       # number of WriteReq miss cycles
system.cpu0.dcache.demand_miss_latency::cpu0.data    120880998                       # number of demand (read+write) miss cycles
system.cpu0.dcache.demand_miss_latency::total    120880998                       # number of demand (read+write) miss cycles
system.cpu0.dcache.overall_miss_latency::cpu0.data    120880998                       # number of overall miss cycles
system.cpu0.dcache.overall_miss_latency::total    120880998                       # number of overall miss cycles
system.cpu0.dcache.ReadReq_accesses::cpu0.data       173875                       # number of ReadReq accesses(hits+misses)
system.cpu0.dcache.ReadReq_accesses::total       173875                       # number of ReadReq accesses(hits+misses)
system.cpu0.dcache.WriteReq_accesses::cpu0.data        33824                       # number of WriteReq accesses(hits+misses)
system.cpu0.dcache.WriteReq_accesses::total        33824                       # number of WriteReq accesses(hits+misses)
system.cpu0.dcache.demand_accesses::cpu0.data       207699                       # number of demand (read+write) accesses
system.cpu0.dcache.demand_accesses::total       207699                       # number of demand (read+write) accesses
system.cpu0.dcache.overall_accesses::cpu0.data       207699                       # number of overall (read+write) accesses
system.cpu0.dcache.overall_accesses::total       207699                       # number of overall (read+write) accesses
system.cpu0.dcache.ReadReq_miss_rate::cpu0.data     0.005619                       # miss rate for ReadReq accesses
system.cpu0.dcache.ReadReq_miss_rate::total     0.005619                       # miss rate for ReadReq accesses
system.cpu0.dcache.WriteReq_miss_rate::cpu0.data     0.027140                       # miss rate for WriteReq accesses
system.cpu0.dcache.WriteReq_miss_rate::total     0.027140                       # miss rate for WriteReq accesses
system.cpu0.dcache.demand_miss_rate::cpu0.data     0.009124                       # miss rate for demand accesses
system.cpu0.dcache.demand_miss_rate::total     0.009124                       # miss rate for demand accesses
system.cpu0.dcache.overall_miss_rate::cpu0.data     0.009124                       # miss rate for overall accesses
system.cpu0.dcache.overall_miss_rate::total     0.009124                       # miss rate for overall accesses
system.cpu0.dcache.ReadReq_avg_miss_latency::cpu0.data 66381.862845                       # average ReadReq miss latency
system.cpu0.dcache.ReadReq_avg_miss_latency::total 66381.862845                       # average ReadReq miss latency
system.cpu0.dcache.WriteReq_avg_miss_latency::cpu0.data 61030.411765                       # average WriteReq miss latency
system.cpu0.dcache.WriteReq_avg_miss_latency::total 61030.411765                       # average WriteReq miss latency
system.cpu0.dcache.demand_avg_miss_latency::cpu0.data 63789.444855                       # average overall miss latency
system.cpu0.dcache.demand_avg_miss_latency::total 63789.444855                       # average overall miss latency
system.cpu0.dcache.overall_avg_miss_latency::cpu0.data 63789.444855                       # average overall miss latency
system.cpu0.dcache.overall_avg_miss_latency::total 63789.444855                       # average overall miss latency
system.cpu0.dcache.blocked_cycles::no_mshrs          856                       # number of cycles access was blocked
system.cpu0.dcache.blocked_cycles::no_targets          283                       # number of cycles access was blocked
system.cpu0.dcache.blocked::no_mshrs               13                       # number of cycles access was blocked
system.cpu0.dcache.blocked::no_targets              3                       # number of cycles access was blocked
system.cpu0.dcache.avg_blocked_cycles::no_mshrs    65.846154                       # average number of cycles each access was blocked
system.cpu0.dcache.avg_blocked_cycles::no_targets    94.333333                       # average number of cycles each access was blocked
system.cpu0.dcache.writebacks::writebacks          550                       # number of writebacks
system.cpu0.dcache.writebacks::total              550                       # number of writebacks
system.cpu0.dcache.ReadReq_mshr_hits::cpu0.data          638                       # number of ReadReq MSHR hits
system.cpu0.dcache.ReadReq_mshr_hits::total          638                       # number of ReadReq MSHR hits
system.cpu0.dcache.demand_mshr_hits::cpu0.data          638                       # number of demand (read+write) MSHR hits
system.cpu0.dcache.demand_mshr_hits::total          638                       # number of demand (read+write) MSHR hits
system.cpu0.dcache.overall_mshr_hits::cpu0.data          638                       # number of overall MSHR hits
system.cpu0.dcache.overall_mshr_hits::total          638                       # number of overall MSHR hits
system.cpu0.dcache.ReadReq_mshr_misses::cpu0.data          339                       # number of ReadReq MSHR misses
system.cpu0.dcache.ReadReq_mshr_misses::total          339                       # number of ReadReq MSHR misses
system.cpu0.dcache.WriteReq_mshr_misses::cpu0.data          918                       # number of WriteReq MSHR misses
system.cpu0.dcache.WriteReq_mshr_misses::total          918                       # number of WriteReq MSHR misses
system.cpu0.dcache.demand_mshr_misses::cpu0.data         1257                       # number of demand (read+write) MSHR misses
system.cpu0.dcache.demand_mshr_misses::total         1257                       # number of demand (read+write) MSHR misses
system.cpu0.dcache.overall_mshr_misses::cpu0.data         1257                       # number of overall MSHR misses
system.cpu0.dcache.overall_mshr_misses::total         1257                       # number of overall MSHR misses
system.cpu0.dcache.ReadReq_mshr_miss_latency::cpu0.data     24954687                       # number of ReadReq MSHR miss cycles
system.cpu0.dcache.ReadReq_mshr_miss_latency::total     24954687                       # number of ReadReq MSHR miss cycles
system.cpu0.dcache.WriteReq_mshr_miss_latency::cpu0.data     55414530                       # number of WriteReq MSHR miss cycles
system.cpu0.dcache.WriteReq_mshr_miss_latency::total     55414530                       # number of WriteReq MSHR miss cycles
system.cpu0.dcache.demand_mshr_miss_latency::cpu0.data     80369217                       # number of demand (read+write) MSHR miss cycles
system.cpu0.dcache.demand_mshr_miss_latency::total     80369217                       # number of demand (read+write) MSHR miss cycles
system.cpu0.dcache.overall_mshr_miss_latency::cpu0.data     80369217                       # number of overall MSHR miss cycles
system.cpu0.dcache.overall_mshr_miss_latency::total     80369217                       # number of overall MSHR miss cycles
system.cpu0.dcache.ReadReq_mshr_miss_rate::cpu0.data     0.001950                       # mshr miss rate for ReadReq accesses
system.cpu0.dcache.ReadReq_mshr_miss_rate::total     0.001950                       # mshr miss rate for ReadReq accesses
system.cpu0.dcache.WriteReq_mshr_miss_rate::cpu0.data     0.027140                       # mshr miss rate for WriteReq accesses
system.cpu0.dcache.WriteReq_mshr_miss_rate::total     0.027140                       # mshr miss rate for WriteReq accesses
system.cpu0.dcache.demand_mshr_miss_rate::cpu0.data     0.006052                       # mshr miss rate for demand accesses
system.cpu0.dcache.demand_mshr_miss_rate::total     0.006052                       # mshr miss rate for demand accesses
system.cpu0.dcache.overall_mshr_miss_rate::cpu0.data     0.006052                       # mshr miss rate for overall accesses
system.cpu0.dcache.overall_mshr_miss_rate::total     0.006052                       # mshr miss rate for overall accesses
system.cpu0.dcache.ReadReq_avg_mshr_miss_latency::cpu0.data 73612.646018                       # average ReadReq mshr miss latency
system.cpu0.dcache.ReadReq_avg_mshr_miss_latency::total 73612.646018                       # average ReadReq mshr miss latency
system.cpu0.dcache.WriteReq_avg_mshr_miss_latency::cpu0.data 60364.411765                       # average WriteReq mshr miss latency
system.cpu0.dcache.WriteReq_avg_mshr_miss_latency::total 60364.411765                       # average WriteReq mshr miss latency
system.cpu0.dcache.demand_avg_mshr_miss_latency::cpu0.data 63937.324582                       # average overall mshr miss latency
system.cpu0.dcache.demand_avg_mshr_miss_latency::total 63937.324582                       # average overall mshr miss latency
system.cpu0.dcache.overall_avg_mshr_miss_latency::cpu0.data 63937.324582                       # average overall mshr miss latency
system.cpu0.dcache.overall_avg_mshr_miss_latency::total 63937.324582                       # average overall mshr miss latency
system.cpu0.dtb_walker_cache.tags.pwrStateResidencyTicks::UNDEFINED    345253401                       # Cumulative time (in ticks) in various power states
system.cpu0.dtb_walker_cache.tags.replacements            0                       # number of replacements
system.cpu0.dtb_walker_cache.tags.tagsinuse            0                       # Cycle average of tags in use
system.cpu0.dtb_walker_cache.tags.total_refs            0                       # Total number of references to valid blocks.
system.cpu0.dtb_walker_cache.tags.sampled_refs            0                       # Sample count of references to valid blocks.
system.cpu0.dtb_walker_cache.tags.avg_refs          nan                       # Average number of references to valid blocks.
system.cpu0.dtb_walker_cache.tags.warmup_cycle            0                       # Cycle when the warmup percentage was hit.
system.cpu0.dtb_walker_cache.tags.tag_accesses            0                       # Number of tag accesses
system.cpu0.dtb_walker_cache.tags.data_accesses            0                       # Number of data accesses
system.cpu0.dtb_walker_cache.pwrStateResidencyTicks::UNDEFINED    345253401                       # Cumulative time (in ticks) in various power states
system.cpu0.dtb_walker_cache.blocked_cycles::no_mshrs            0                       # number of cycles access was blocked
system.cpu0.dtb_walker_cache.blocked_cycles::no_targets            0                       # number of cycles access was blocked
system.cpu0.dtb_walker_cache.blocked::no_mshrs            0                       # number of cycles access was blocked
system.cpu0.dtb_walker_cache.blocked::no_targets            0                       # number of cycles access was blocked
system.cpu0.dtb_walker_cache.avg_blocked_cycles::no_mshrs          nan                       # average number of cycles each access was blocked
system.cpu0.dtb_walker_cache.avg_blocked_cycles::no_targets          nan                       # average number of cycles each access was blocked
system.cpu0.icache.tags.pwrStateResidencyTicks::UNDEFINED    345253401                       # Cumulative time (in ticks) in various power states
system.cpu0.icache.tags.replacements              652                       # number of replacements
system.cpu0.icache.tags.tagsinuse          482.356956                       # Cycle average of tags in use
system.cpu0.icache.tags.total_refs             223021                       # Total number of references to valid blocks.
system.cpu0.icache.tags.sampled_refs             1164                       # Sample count of references to valid blocks.
system.cpu0.icache.tags.avg_refs           191.598797                       # Average number of references to valid blocks.
system.cpu0.icache.tags.warmup_cycle            81252                       # Cycle when the warmup percentage was hit.
system.cpu0.icache.tags.occ_blocks::cpu0.inst   482.356956                       # Average occupied blocks per requestor
system.cpu0.icache.tags.occ_percent::cpu0.inst     0.942103                       # Average percentage of cache occupancy
system.cpu0.icache.tags.occ_percent::total     0.942103                       # Average percentage of cache occupancy
system.cpu0.icache.tags.occ_task_id_blocks::1024          512                       # Occupied blocks per task id
system.cpu0.icache.tags.age_task_id_blocks_1024::2          512                       # Occupied blocks per task id
system.cpu0.icache.tags.occ_task_id_percent::1024            1                       # Percentage of cache occupancy per task id
system.cpu0.icache.tags.tag_accesses          1798844                       # Number of tag accesses
system.cpu0.icache.tags.data_accesses         1798844                       # Number of data accesses
system.cpu0.icache.pwrStateResidencyTicks::UNDEFINED    345253401                       # Cumulative time (in ticks) in various power states
system.cpu0.icache.ReadReq_hits::cpu0.inst       223021                       # number of ReadReq hits
system.cpu0.icache.ReadReq_hits::total         223021                       # number of ReadReq hits
system.cpu0.icache.demand_hits::cpu0.inst       223021                       # number of demand (read+write) hits
system.cpu0.icache.demand_hits::total          223021                       # number of demand (read+write) hits
system.cpu0.icache.overall_hits::cpu0.inst       223021                       # number of overall hits
system.cpu0.icache.overall_hits::total         223021                       # number of overall hits
system.cpu0.icache.ReadReq_misses::cpu0.inst         1689                       # number of ReadReq misses
system.cpu0.icache.ReadReq_misses::total         1689                       # number of ReadReq misses
system.cpu0.icache.demand_misses::cpu0.inst         1689                       # number of demand (read+write) misses
system.cpu0.icache.demand_misses::total          1689                       # number of demand (read+write) misses
system.cpu0.icache.overall_misses::cpu0.inst         1689                       # number of overall misses
system.cpu0.icache.overall_misses::total         1689                       # number of overall misses
system.cpu0.icache.ReadReq_miss_latency::cpu0.inst     99096137                       # number of ReadReq miss cycles
system.cpu0.icache.ReadReq_miss_latency::total     99096137                       # number of ReadReq miss cycles
system.cpu0.icache.demand_miss_latency::cpu0.inst     99096137                       # number of demand (read+write) miss cycles
system.cpu0.icache.demand_miss_latency::total     99096137                       # number of demand (read+write) miss cycles
system.cpu0.icache.overall_miss_latency::cpu0.inst     99096137                       # number of overall miss cycles
system.cpu0.icache.overall_miss_latency::total     99096137                       # number of overall miss cycles
system.cpu0.icache.ReadReq_accesses::cpu0.inst       224710                       # number of ReadReq accesses(hits+misses)
system.cpu0.icache.ReadReq_accesses::total       224710                       # number of ReadReq accesses(hits+misses)
system.cpu0.icache.demand_accesses::cpu0.inst       224710                       # number of demand (read+write) accesses
system.cpu0.icache.demand_accesses::total       224710                       # number of demand (read+write) accesses
system.cpu0.icache.overall_accesses::cpu0.inst       224710                       # number of overall (read+write) accesses
system.cpu0.icache.overall_accesses::total       224710                       # number of overall (read+write) accesses
system.cpu0.icache.ReadReq_miss_rate::cpu0.inst     0.007516                       # miss rate for ReadReq accesses
system.cpu0.icache.ReadReq_miss_rate::total     0.007516                       # miss rate for ReadReq accesses
system.cpu0.icache.demand_miss_rate::cpu0.inst     0.007516                       # miss rate for demand accesses
system.cpu0.icache.demand_miss_rate::total     0.007516                       # miss rate for demand accesses
system.cpu0.icache.overall_miss_rate::cpu0.inst     0.007516                       # miss rate for overall accesses
system.cpu0.icache.overall_miss_rate::total     0.007516                       # miss rate for overall accesses
system.cpu0.icache.ReadReq_avg_miss_latency::cpu0.inst 58671.484310                       # average ReadReq miss latency
system.cpu0.icache.ReadReq_avg_miss_latency::total 58671.484310                       # average ReadReq miss latency
system.cpu0.icache.demand_avg_miss_latency::cpu0.inst 58671.484310                       # average overall miss latency
system.cpu0.icache.demand_avg_miss_latency::total 58671.484310                       # average overall miss latency
system.cpu0.icache.overall_avg_miss_latency::cpu0.inst 58671.484310                       # average overall miss latency
system.cpu0.icache.overall_avg_miss_latency::total 58671.484310                       # average overall miss latency
system.cpu0.icache.blocked_cycles::no_mshrs         1533                       # number of cycles access was blocked
system.cpu0.icache.blocked_cycles::no_targets            0                       # number of cycles access was blocked
system.cpu0.icache.blocked::no_mshrs               21                       # number of cycles access was blocked
system.cpu0.icache.blocked::no_targets              0                       # number of cycles access was blocked
system.cpu0.icache.avg_blocked_cycles::no_mshrs           73                       # average number of cycles each access was blocked
system.cpu0.icache.avg_blocked_cycles::no_targets          nan                       # average number of cycles each access was blocked
system.cpu0.icache.writebacks::writebacks          652                       # number of writebacks
system.cpu0.icache.writebacks::total              652                       # number of writebacks
system.cpu0.icache.ReadReq_mshr_hits::cpu0.inst          525                       # number of ReadReq MSHR hits
system.cpu0.icache.ReadReq_mshr_hits::total          525                       # number of ReadReq MSHR hits
system.cpu0.icache.demand_mshr_hits::cpu0.inst          525                       # number of demand (read+write) MSHR hits
system.cpu0.icache.demand_mshr_hits::total          525                       # number of demand (read+write) MSHR hits
system.cpu0.icache.overall_mshr_hits::cpu0.inst          525                       # number of overall MSHR hits
system.cpu0.icache.overall_mshr_hits::total          525                       # number of overall MSHR hits
system.cpu0.icache.ReadReq_mshr_misses::cpu0.inst         1164                       # number of ReadReq MSHR misses
system.cpu0.icache.ReadReq_mshr_misses::total         1164                       # number of ReadReq MSHR misses
system.cpu0.icache.demand_mshr_misses::cpu0.inst         1164                       # number of demand (read+write) MSHR misses
system.cpu0.icache.demand_mshr_misses::total         1164                       # number of demand (read+write) MSHR misses
system.cpu0.icache.overall_mshr_misses::cpu0.inst         1164                       # number of overall MSHR misses
system.cpu0.icache.overall_mshr_misses::total         1164                       # number of overall MSHR misses
system.cpu0.icache.ReadReq_mshr_miss_latency::cpu0.inst     75102155                       # number of ReadReq MSHR miss cycles
system.cpu0.icache.ReadReq_mshr_miss_latency::total     75102155                       # number of ReadReq MSHR miss cycles
system.cpu0.icache.demand_mshr_miss_latency::cpu0.inst     75102155                       # number of demand (read+write) MSHR miss cycles
system.cpu0.icache.demand_mshr_miss_latency::total     75102155                       # number of demand (read+write) MSHR miss cycles
system.cpu0.icache.overall_mshr_miss_latency::cpu0.inst     75102155                       # number of overall MSHR miss cycles
system.cpu0.icache.overall_mshr_miss_latency::total     75102155                       # number of overall MSHR miss cycles
system.cpu0.icache.ReadReq_mshr_miss_rate::cpu0.inst     0.005180                       # mshr miss rate for ReadReq accesses
system.cpu0.icache.ReadReq_mshr_miss_rate::total     0.005180                       # mshr miss rate for ReadReq accesses
system.cpu0.icache.demand_mshr_miss_rate::cpu0.inst     0.005180                       # mshr miss rate for demand accesses
system.cpu0.icache.demand_mshr_miss_rate::total     0.005180                       # mshr miss rate for demand accesses
system.cpu0.icache.overall_mshr_miss_rate::cpu0.inst     0.005180                       # mshr miss rate for overall accesses
system.cpu0.icache.overall_mshr_miss_rate::total     0.005180                       # mshr miss rate for overall accesses
system.cpu0.icache.ReadReq_avg_mshr_miss_latency::cpu0.inst 64520.751718                       # average ReadReq mshr miss latency
system.cpu0.icache.ReadReq_avg_mshr_miss_latency::total 64520.751718                       # average ReadReq mshr miss latency
system.cpu0.icache.demand_avg_mshr_miss_latency::cpu0.inst 64520.751718                       # average overall mshr miss latency
system.cpu0.icache.demand_avg_mshr_miss_latency::total 64520.751718                       # average overall mshr miss latency
system.cpu0.icache.overall_avg_mshr_miss_latency::cpu0.inst 64520.751718                       # average overall mshr miss latency
system.cpu0.icache.overall_avg_mshr_miss_latency::total 64520.751718                       # average overall mshr miss latency
system.cpu0.itb_walker_cache.tags.pwrStateResidencyTicks::UNDEFINED    345253401                       # Cumulative time (in ticks) in various power states
system.cpu0.itb_walker_cache.tags.replacements            0                       # number of replacements
system.cpu0.itb_walker_cache.tags.tagsinuse            0                       # Cycle average of tags in use
system.cpu0.itb_walker_cache.tags.total_refs            0                       # Total number of references to valid blocks.
system.cpu0.itb_walker_cache.tags.sampled_refs            0                       # Sample count of references to valid blocks.
system.cpu0.itb_walker_cache.tags.avg_refs          nan                       # Average number of references to valid blocks.
system.cpu0.itb_walker_cache.tags.warmup_cycle            0                       # Cycle when the warmup percentage was hit.
system.cpu0.itb_walker_cache.tags.tag_accesses            0                       # Number of tag accesses
system.cpu0.itb_walker_cache.tags.data_accesses            0                       # Number of data accesses
system.cpu0.itb_walker_cache.pwrStateResidencyTicks::UNDEFINED    345253401                       # Cumulative time (in ticks) in various power states
system.cpu0.itb_walker_cache.blocked_cycles::no_mshrs            0                       # number of cycles access was blocked
system.cpu0.itb_walker_cache.blocked_cycles::no_targets            0                       # number of cycles access was blocked
system.cpu0.itb_walker_cache.blocked::no_mshrs            0                       # number of cycles access was blocked
system.cpu0.itb_walker_cache.blocked::no_targets            0                       # number of cycles access was blocked
system.cpu0.itb_walker_cache.avg_blocked_cycles::no_mshrs          nan                       # average number of cycles each access was blocked
system.cpu0.itb_walker_cache.avg_blocked_cycles::no_targets          nan                       # average number of cycles each access was blocked
system.cpu0.l2cache.tags.pwrStateResidencyTicks::UNDEFINED    345253401                       # Cumulative time (in ticks) in various power states
system.cpu0.l2cache.tags.replacements             224                       # number of replacements
system.cpu0.l2cache.tags.tagsinuse        1771.762677                       # Cycle average of tags in use
system.cpu0.l2cache.tags.total_refs              1429                       # Total number of references to valid blocks.
system.cpu0.l2cache.tags.sampled_refs            2370                       # Sample count of references to valid blocks.
system.cpu0.l2cache.tags.avg_refs            0.602954                       # Average number of references to valid blocks.
system.cpu0.l2cache.tags.warmup_cycle           78000                       # Cycle when the warmup percentage was hit.
system.cpu0.l2cache.tags.occ_blocks::writebacks    31.016222                       # Average occupied blocks per requestor
system.cpu0.l2cache.tags.occ_blocks::cpu0.inst   830.737080                       # Average occupied blocks per requestor
system.cpu0.l2cache.tags.occ_blocks::cpu0.data   910.009375                       # Average occupied blocks per requestor
system.cpu0.l2cache.tags.occ_percent::writebacks     0.007572                       # Average percentage of cache occupancy
system.cpu0.l2cache.tags.occ_percent::cpu0.inst     0.202817                       # Average percentage of cache occupancy
system.cpu0.l2cache.tags.occ_percent::cpu0.data     0.222170                       # Average percentage of cache occupancy
system.cpu0.l2cache.tags.occ_percent::total     0.432559                       # Average percentage of cache occupancy
system.cpu0.l2cache.tags.occ_task_id_blocks::1024         2146                       # Occupied blocks per task id
system.cpu0.l2cache.tags.age_task_id_blocks_1024::1            1                       # Occupied blocks per task id
system.cpu0.l2cache.tags.age_task_id_blocks_1024::2         2145                       # Occupied blocks per task id
system.cpu0.l2cache.tags.occ_task_id_percent::1024     0.523926                       # Percentage of cache occupancy per task id
system.cpu0.l2cache.tags.tag_accesses           17630                       # Number of tag accesses
system.cpu0.l2cache.tags.data_accesses          17630                       # Number of data accesses
system.cpu0.l2cache.pwrStateResidencyTicks::UNDEFINED    345253401                       # Cumulative time (in ticks) in various power states
system.cpu0.l2cache.WritebackDirty_hits::writebacks          550                       # number of WritebackDirty hits
system.cpu0.l2cache.WritebackDirty_hits::total          550                       # number of WritebackDirty hits
system.cpu0.l2cache.WritebackClean_hits::writebacks          650                       # number of WritebackClean hits
system.cpu0.l2cache.WritebackClean_hits::total          650                       # number of WritebackClean hits
system.cpu0.l2cache.ReadExReq_hits::cpu0.data            3                       # number of ReadExReq hits
system.cpu0.l2cache.ReadExReq_hits::total            3                       # number of ReadExReq hits
system.cpu0.l2cache.ReadCleanReq_hits::cpu0.inst           76                       # number of ReadCleanReq hits
system.cpu0.l2cache.ReadCleanReq_hits::total           76                       # number of ReadCleanReq hits
system.cpu0.l2cache.ReadSharedReq_hits::cpu0.data           26                       # number of ReadSharedReq hits
system.cpu0.l2cache.ReadSharedReq_hits::total           26                       # number of ReadSharedReq hits
system.cpu0.l2cache.demand_hits::cpu0.inst           76                       # number of demand (read+write) hits
system.cpu0.l2cache.demand_hits::cpu0.data           29                       # number of demand (read+write) hits
system.cpu0.l2cache.demand_hits::total            105                       # number of demand (read+write) hits
system.cpu0.l2cache.overall_hits::cpu0.inst           76                       # number of overall hits
system.cpu0.l2cache.overall_hits::cpu0.data           29                       # number of overall hits
system.cpu0.l2cache.overall_hits::total           105                       # number of overall hits
system.cpu0.l2cache.ReadExReq_misses::cpu0.data          915                       # number of ReadExReq misses
system.cpu0.l2cache.ReadExReq_misses::total          915                       # number of ReadExReq misses
system.cpu0.l2cache.ReadCleanReq_misses::cpu0.inst         1088                       # number of ReadCleanReq misses
system.cpu0.l2cache.ReadCleanReq_misses::total         1088                       # number of ReadCleanReq misses
system.cpu0.l2cache.ReadSharedReq_misses::cpu0.data          313                       # number of ReadSharedReq misses
system.cpu0.l2cache.ReadSharedReq_misses::total          313                       # number of ReadSharedReq misses
system.cpu0.l2cache.demand_misses::cpu0.inst         1088                       # number of demand (read+write) misses
system.cpu0.l2cache.demand_misses::cpu0.data         1228                       # number of demand (read+write) misses
system.cpu0.l2cache.demand_misses::total         2316                       # number of demand (read+write) misses
system.cpu0.l2cache.overall_misses::cpu0.inst         1088                       # number of overall misses
system.cpu0.l2cache.overall_misses::cpu0.data         1228                       # number of overall misses
system.cpu0.l2cache.overall_misses::total         2316                       # number of overall misses
system.cpu0.l2cache.ReadExReq_miss_latency::cpu0.data     54470475                       # number of ReadExReq miss cycles
[...]
system.l3.demand_mshr_miss_latency::cpu0.data     61899253                       # number of demand (read+write) MSHR miss cycles
system.l3.demand_mshr_miss_latency::cpu1.inst     57105454                       # number of demand (read+write) MSHR miss cycles
system.l3.demand_mshr_miss_latency::cpu1.data     61637130                       # number of demand (read+write) MSHR miss cycles
system.l3.demand_mshr_miss_latency::cpu2.inst     59326779                       # number of demand (read+write) MSHR miss cycles
system.l3.demand_mshr_miss_latency::cpu2.data     60767434                       # number of demand (read+write) MSHR miss cycles
system.l3.demand_mshr_miss_latency::cpu3.inst     57196911                       # number of demand (read+write) MSHR miss cycles
system.l3.demand_mshr_miss_latency::cpu3.data     59484180                       # number of demand (read+write) MSHR miss cycles
system.l3.demand_mshr_miss_latency::total    475939149                       # number of demand (read+write) MSHR miss cycles
system.l3.overall_mshr_miss_latency::cpu0.inst     58522008                       # number of overall MSHR miss cycles
system.l3.overall_mshr_miss_latency::cpu0.data     61899253                       # number of overall MSHR miss cycles
system.l3.overall_mshr_miss_latency::cpu1.inst     57105454                       # number of overall MSHR miss cycles
system.l3.overall_mshr_miss_latency::cpu1.data     61637130                       # number of overall MSHR miss cycles
system.l3.overall_mshr_miss_latency::cpu2.inst     59326779                       # number of overall MSHR miss cycles
system.l3.overall_mshr_miss_latency::cpu2.data     60767434                       # number of overall MSHR miss cycles
system.l3.overall_mshr_miss_latency::cpu3.inst     57196911                       # number of overall MSHR miss cycles
system.l3.overall_mshr_miss_latency::cpu3.data     59484180                       # number of overall MSHR miss cycles
system.l3.overall_mshr_miss_latency::total    475939149                       # number of overall MSHR miss cycles
system.l3.ReadExReq_mshr_miss_rate::cpu0.data     0.998907                       # mshr miss rate for ReadExReq accesses
system.l3.ReadExReq_mshr_miss_rate::cpu1.data            1                       # mshr miss rate for ReadExReq accesses
system.l3.ReadExReq_mshr_miss_rate::cpu2.data            1                       # mshr miss rate for ReadExReq accesses
system.l3.ReadExReq_mshr_miss_rate::cpu3.data            1                       # mshr miss rate for ReadExReq accesses
system.l3.ReadExReq_mshr_miss_rate::total     0.999727                       # mshr miss rate for ReadExReq accesses
system.l3.ReadSharedReq_mshr_miss_rate::cpu0.inst            1                       # mshr miss rate for ReadSharedReq accesses
system.l3.ReadSharedReq_mshr_miss_rate::cpu0.data     0.996805                       # mshr miss rate for ReadSharedReq accesses
system.l3.ReadSharedReq_mshr_miss_rate::cpu1.inst            1                       # mshr miss rate for ReadSharedReq accesses
system.l3.ReadSharedReq_mshr_miss_rate::cpu1.data            1                       # mshr miss rate for ReadSharedReq accesses
system.l3.ReadSharedReq_mshr_miss_rate::cpu2.inst            1                       # mshr miss rate for ReadSharedReq accesses
system.l3.ReadSharedReq_mshr_miss_rate::cpu2.data            1                       # mshr miss rate for ReadSharedReq accesses
system.l3.ReadSharedReq_mshr_miss_rate::cpu3.inst            1                       # mshr miss rate for ReadSharedReq accesses
system.l3.ReadSharedReq_mshr_miss_rate::cpu3.data     0.996732                       # mshr miss rate for ReadSharedReq accesses
system.l3.ReadSharedReq_mshr_miss_rate::total     0.999641                       # mshr miss rate for ReadSharedReq accesses
system.l3.demand_mshr_miss_rate::cpu0.inst            1                       # mshr miss rate for demand accesses
system.l3.demand_mshr_miss_rate::cpu0.data     0.998371                       # mshr miss rate for demand accesses
system.l3.demand_mshr_miss_rate::cpu1.inst            1                       # mshr miss rate for demand accesses
system.l3.demand_mshr_miss_rate::cpu1.data            1                       # mshr miss rate for demand accesses
system.l3.demand_mshr_miss_rate::cpu2.inst            1                       # mshr miss rate for demand accesses
system.l3.demand_mshr_miss_rate::cpu2.data            1                       # mshr miss rate for demand accesses
system.l3.demand_mshr_miss_rate::cpu3.inst            1                       # mshr miss rate for demand accesses
system.l3.demand_mshr_miss_rate::cpu3.data     0.999181                       # mshr miss rate for demand accesses
system.l3.demand_mshr_miss_rate::total       0.999675                       # mshr miss rate for demand accesses
system.l3.overall_mshr_miss_rate::cpu0.inst            1                       # mshr miss rate for overall accesses
system.l3.overall_mshr_miss_rate::cpu0.data     0.998371                       # mshr miss rate for overall accesses
system.l3.overall_mshr_miss_rate::cpu1.inst            1                       # mshr miss rate for overall accesses
system.l3.overall_mshr_miss_rate::cpu1.data            1                       # mshr miss rate for overall accesses
system.l3.overall_mshr_miss_rate::cpu2.inst            1                       # mshr miss rate for overall accesses
system.l3.overall_mshr_miss_rate::cpu2.data            1                       # mshr miss rate for overall accesses
system.l3.overall_mshr_miss_rate::cpu3.inst            1                       # mshr miss rate for overall accesses
system.l3.overall_mshr_miss_rate::cpu3.data     0.999181                       # mshr miss rate for overall accesses
system.l3.overall_mshr_miss_rate::total      0.999675                       # mshr miss rate for overall accesses
system.l3.ReadExReq_avg_mshr_miss_latency::cpu0.data 45695.522976                       # average ReadExReq mshr miss latency
system.l3.ReadExReq_avg_mshr_miss_latency::cpu1.data 48226.771084                       # average ReadExReq mshr miss latency
system.l3.ReadExReq_avg_mshr_miss_latency::cpu2.data 46062.562363                       # average ReadExReq mshr miss latency
system.l3.ReadExReq_avg_mshr_miss_latency::cpu3.data 46136.877596                       # average ReadExReq mshr miss latency
system.l3.ReadExReq_avg_mshr_miss_latency::total 46529.861871                       # average ReadExReq mshr miss latency
system.l3.ReadSharedReq_avg_mshr_miss_latency::cpu0.inst 53788.610294                       # average ReadSharedReq mshr miss latency
system.l3.ReadSharedReq_avg_mshr_miss_latency::cpu0.data 64530.592949                       # average ReadSharedReq mshr miss latency
system.l3.ReadSharedReq_avg_mshr_miss_latency::cpu1.inst 52875.420370                       # average ReadSharedReq mshr miss latency
system.l3.ReadSharedReq_avg_mshr_miss_latency::cpu1.data 56793.832258                       # average ReadSharedReq mshr miss latency
system.l3.ReadSharedReq_avg_mshr_miss_latency::cpu2.inst 54932.202778                       # average ReadSharedReq mshr miss latency
system.l3.ReadSharedReq_avg_mshr_miss_latency::cpu2.data 60408.582524                       # average ReadSharedReq mshr miss latency
system.l3.ReadSharedReq_avg_mshr_miss_latency::cpu3.inst 53058.358998                       # average ReadSharedReq mshr miss latency
system.l3.ReadSharedReq_avg_mshr_miss_latency::cpu3.data 56619.465574                       # average ReadSharedReq mshr miss latency
system.l3.ReadSharedReq_avg_mshr_miss_latency::total 54984.892844                       # average ReadSharedReq mshr miss latency
system.l3.demand_avg_mshr_miss_latency::cpu0.inst 53788.610294                       # average overall mshr miss latency
system.l3.demand_avg_mshr_miss_latency::cpu0.data 50488.787113                       # average overall mshr miss latency
system.l3.demand_avg_mshr_miss_latency::cpu1.inst 52875.420370                       # average overall mshr miss latency
system.l3.demand_avg_mshr_miss_latency::cpu1.data 50398.307441                       # average overall mshr miss latency
system.l3.demand_avg_mshr_miss_latency::cpu2.inst 54932.202778                       # average overall mshr miss latency
system.l3.demand_avg_mshr_miss_latency::cpu2.data 49687.190515                       # average overall mshr miss latency
system.l3.demand_avg_mshr_miss_latency::cpu3.inst 53058.358998                       # average overall mshr miss latency
system.l3.demand_avg_mshr_miss_latency::cpu3.data 48757.524590                       # average overall mshr miss latency
system.l3.demand_avg_mshr_miss_latency::total 51631.498047                       # average overall mshr miss latency
system.l3.overall_avg_mshr_miss_latency::cpu0.inst 53788.610294                       # average overall mshr miss latency
system.l3.overall_avg_mshr_miss_latency::cpu0.data 50488.787113                       # average overall mshr miss latency
system.l3.overall_avg_mshr_miss_latency::cpu1.inst 52875.420370                       # average overall mshr miss latency
system.l3.overall_avg_mshr_miss_latency::cpu1.data 50398.307441                       # average overall mshr miss latency
system.l3.overall_avg_mshr_miss_latency::cpu2.inst 54932.202778                       # average overall mshr miss latency
system.l3.overall_avg_mshr_miss_latency::cpu2.data 49687.190515                       # average overall mshr miss latency
system.l3.overall_avg_mshr_miss_latency::cpu3.inst 53058.358998                       # average overall mshr miss latency
system.l3.overall_avg_mshr_miss_latency::cpu3.data 48757.524590                       # average overall mshr miss latency
system.l3.overall_avg_mshr_miss_latency::total 51631.498047                       # average overall mshr miss latency
system.membus.snoop_filter.tot_requests          9218                       # Total number of requests made to the snoop filter.
system.membus.snoop_filter.hit_single_requests            0                       # Number of requests hitting in the snoop filter with a single holder of the requested data.
system.membus.snoop_filter.hit_multi_requests            0                       # Number of requests hitting in the snoop filter with multiple (>1) holders of the requested data.
system.membus.snoop_filter.tot_snoops               0                       # Total number of snoops made to the snoop filter.
system.membus.snoop_filter.hit_single_snoops            0                       # Number of snoops hitting in the snoop filter with a single holder of the requested data.
system.membus.snoop_filter.hit_multi_snoops            0                       # Number of snoops hitting in the snoop filter with multiple (>1) holders of the requested data.
system.membus.pwrStateResidencyTicks::UNDEFINED    345253401                       # Cumulative time (in ticks) in various power states
system.membus.trans_dist::ReadResp               5562                       # Transaction distribution
system.membus.trans_dist::ReadExReq              3656                       # Transaction distribution
system.membus.trans_dist::ReadExResp             3656                       # Transaction distribution
system.membus.trans_dist::ReadSharedReq          5562                       # Transaction distribution
system.membus.pkt_count_system.l3.mem_side::system.mem_ctrls.port        18436                       # Packet count per connected master and slave (bytes)
system.membus.pkt_count_system.l3.mem_side::total        18436                       # Packet count per connected master and slave (bytes)
system.membus.pkt_count::total                  18436                       # Packet count per connected master and slave (bytes)
system.membus.pkt_size_system.l3.mem_side::system.mem_ctrls.port       589952                       # Cumulative packet size per connected master and slave (bytes)
system.membus.pkt_size_system.l3.mem_side::total       589952                       # Cumulative packet size per connected master and slave (bytes)
system.membus.pkt_size::total                  589952                       # Cumulative packet size per connected master and slave (bytes)
system.membus.snoops                                0                       # Total snoops (count)
system.membus.snoopTraffic                          0                       # Total snoop traffic (bytes)
system.membus.snoop_fanout::samples              9218                       # Request fanout histogram
system.membus.snoop_fanout::mean                    0                       # Request fanout histogram
system.membus.snoop_fanout::stdev                   0                       # Request fanout histogram
system.membus.snoop_fanout::underflows              0      0.00%      0.00% # Request fanout histogram
system.membus.snoop_fanout::0                    9218    100.00%    100.00% # Request fanout histogram
system.membus.snoop_fanout::1                       0      0.00%    100.00% # Request fanout histogram
system.membus.snoop_fanout::overflows               0      0.00%    100.00% # Request fanout histogram
system.membus.snoop_fanout::min_value               0                       # Request fanout histogram
system.membus.snoop_fanout::max_value               0                       # Request fanout histogram
system.membus.snoop_fanout::total                9218                       # Request fanout histogram
system.membus.reqLayer8.occupancy            11990644                       # Layer occupancy (ticks)
system.membus.reqLayer8.utilization               3.5                       # Layer utilization (%)
system.membus.respLayer1.occupancy           48906773                       # Layer occupancy (ticks)
system.membus.respLayer1.utilization             14.2                       # Layer utilization (%)
system.tol3bus.snoop_filter.tot_requests         9566                       # Total number of requests made to the snoop filter.
system.tol3bus.snoop_filter.hit_single_requests          345                       # Number of requests hitting in the snoop filter with a single holder of the requested data.
system.tol3bus.snoop_filter.hit_multi_requests            0                       # Number of requests hitting in the snoop filter with multiple (>1) holders of the requested data.
system.tol3bus.snoop_filter.tot_snoops              0                       # Total number of snoops made to the snoop filter.
system.tol3bus.snoop_filter.hit_single_snoops            0                       # Number of snoops hitting in the snoop filter with a single holder of the requested data.
system.tol3bus.snoop_filter.hit_multi_snoops            0                       # Number of snoops hitting in the snoop filter with multiple (>1) holders of the requested data.
system.tol3bus.pwrStateResidencyTicks::UNDEFINED    345253401                       # Cumulative time (in ticks) in various power states
system.tol3bus.trans_dist::ReadResp              5564                       # Transaction distribution
system.tol3bus.trans_dist::WritebackDirty           29                       # Transaction distribution
system.tol3bus.trans_dist::CleanEvict             316                       # Transaction distribution
system.tol3bus.trans_dist::ReadExReq             3657                       # Transaction distribution
system.tol3bus.trans_dist::ReadExResp            3657                       # Transaction distribution
system.tol3bus.trans_dist::ReadSharedReq         5564                       # Transaction distribution
system.tol3bus.pkt_count_system.cpu0.l2cache.mem_side::system.l3.cpu_side         4737                       # Packet count per connected master and slave (bytes)
system.tol3bus.pkt_count_system.cpu1.l2cache.mem_side::system.l3.cpu_side         4677                       # Packet count per connected master and slave (bytes)
system.tol3bus.pkt_count_system.cpu2.l2cache.mem_side::system.l3.cpu_side         4710                       # Packet count per connected master and slave (bytes)
system.tol3bus.pkt_count_system.cpu3.l2cache.mem_side::system.l3.cpu_side         4663                       # Packet count per connected master and slave (bytes)
system.tol3bus.pkt_count::total                 18787                       # Packet count per connected master and slave (bytes)
system.tol3bus.pkt_size_system.cpu0.l2cache.mem_side::system.l3.cpu_side       148928                       # Cumulative packet size per connected master and slave (bytes)
system.tol3bus.pkt_size_system.cpu1.l2cache.mem_side::system.l3.cpu_side       147584                       # Cumulative packet size per connected master and slave (bytes)
system.tol3bus.pkt_size_system.cpu2.l2cache.mem_side::system.l3.cpu_side       147776                       # Cumulative packet size per connected master and slave (bytes)
system.tol3bus.pkt_size_system.cpu3.l2cache.mem_side::system.l3.cpu_side       147712                       # Cumulative packet size per connected master and slave (bytes)
system.tol3bus.pkt_size::total                 592000                       # Cumulative packet size per connected master and slave (bytes)
system.tol3bus.snoops                               0                       # Total snoops (count)
system.tol3bus.snoopTraffic                         0                       # Total snoop traffic (bytes)
system.tol3bus.snoop_fanout::samples             9221                       # Request fanout histogram
system.tol3bus.snoop_fanout::mean                   0                       # Request fanout histogram
system.tol3bus.snoop_fanout::stdev                  0                       # Request fanout histogram
system.tol3bus.snoop_fanout::underflows             0      0.00%      0.00% # Request fanout histogram
system.tol3bus.snoop_fanout::0                   9221    100.00%    100.00% # Request fanout histogram
system.tol3bus.snoop_fanout::1                      0      0.00%    100.00% # Request fanout histogram
system.tol3bus.snoop_fanout::2                      0      0.00%    100.00% # Request fanout histogram
system.tol3bus.snoop_fanout::3                      0      0.00%    100.00% # Request fanout histogram
system.tol3bus.snoop_fanout::4                      0      0.00%    100.00% # Request fanout histogram
system.tol3bus.snoop_fanout::overflows              0      0.00%    100.00% # Request fanout histogram
system.tol3bus.snoop_fanout::min_value              0                       # Request fanout histogram
system.tol3bus.snoop_fanout::max_value              0                       # Request fanout histogram
system.tol3bus.snoop_fanout::total               9221                       # Request fanout histogram
system.tol3bus.reqLayer0.occupancy           14224253                       # Layer occupancy (ticks)
system.tol3bus.reqLayer0.utilization              4.1                       # Layer utilization (%)
system.tol3bus.respLayer0.occupancy           7350632                       # Layer occupancy (ticks)
system.tol3bus.respLayer0.utilization             2.1                       # Layer utilization (%)
system.tol3bus.respLayer1.occupancy           7312112                       # Layer occupancy (ticks)
system.tol3bus.respLayer1.utilization             2.1                       # Layer utilization (%)
system.tol3bus.respLayer2.occupancy           7306983                       # Layer occupancy (ticks)
system.tol3bus.respLayer2.utilization             2.1                       # Layer utilization (%)
system.tol3bus.respLayer3.occupancy           7295327                       # Layer occupancy (ticks)
system.tol3bus.respLayer3.utilization             2.1                       # Layer utilization (%)

---------- End Simulation Statistics   ----------
