
---------- Begin Simulation Statistics ----------
sim_seconds                                  0.045210                       # Number of seconds simulated
sim_ticks                                 45209574504                       # Number of ticks simulated
final_tick                                45209574504                       # Number of ticks from beginning of simulation (restored from checkpoints and never reset)
sim_freq                                 1000000000000                       # Frequency of simulated ticks
host_inst_rate                                 203425                       # Simulator instruction rate (inst/s)
host_op_rate                                   299975                       # Simulator op (including micro ops) rate (op/s)
host_tick_rate                               23049826                       # Simulator tick rate (ticks/s)
host_mem_usage                               33870360                       # Number of bytes of host memory used
host_seconds                                  1961.38                       # Real time elapsed on the host
sim_insts                                   398995045                       # Number of instructions simulated
sim_ops                                     588366866                       # Number of ops (including micro ops) simulated
system.voltage_domain.voltage                       1                       # Voltage in Volts
system.clk_domain.clock                          1000                       # Clock period in ticks
system.mem_ctrls.pwrStateResidencyTicks::UNDEFINED  45209574504                       # Cumulative time (in ticks) in various power states
system.mem_ctrls.bytes_read::cpu0.inst         122560                       # Number of bytes read from this memory
system.mem_ctrls.bytes_read::cpu0.data       47450496                       # Number of bytes read from this memory
system.mem_ctrls.bytes_read::cpu1.inst         122112                       # Number of bytes read from this memory
system.mem_ctrls.bytes_read::cpu1.data       46977728                       # Number of bytes read from this memory
system.mem_ctrls.bytes_read::cpu2.inst         122368                       # Number of bytes read from this memory
system.mem_ctrls.bytes_read::cpu2.data       47311040                       # Number of bytes read from this memory
system.mem_ctrls.bytes_read::cpu3.inst         122304                       # Number of bytes read from this memory
system.mem_ctrls.bytes_read::cpu3.data       47532160                       # Number of bytes read from this memory
system.mem_ctrls.bytes_read::total          189760768                       # Number of bytes read from this memory
system.mem_ctrls.bytes_inst_read::cpu0.inst       122560                       # Number of instructions bytes read from this memory
system.mem_ctrls.bytes_inst_read::cpu1.inst       122112                       # Number of instructions bytes read from this memory
system.mem_ctrls.bytes_inst_read::cpu2.inst       122368                       # Number of instructions bytes read from this memory
system.mem_ctrls.bytes_inst_read::cpu3.inst       122304                       # Number of instructions bytes read from this memory
system.mem_ctrls.bytes_inst_read::total        489344                       # Number of instructions bytes read from this memory
system.mem_ctrls.bytes_written::writebacks     63142272                       # Number of bytes written to this memory
system.mem_ctrls.bytes_written::total        63142272                       # Number of bytes written to this memory
system.mem_ctrls.num_reads::cpu0.inst            1915                       # Number of read requests responded to by this memory
system.mem_ctrls.num_reads::cpu0.data          741414                       # Number of read requests responded to by this memory
system.mem_ctrls.num_reads::cpu1.inst            1908                       # Number of read requests responded to by this memory
system.mem_ctrls.num_reads::cpu1.data          734027                       # Number of read requests responded to by this memory
system.mem_ctrls.num_reads::cpu2.inst            1912                       # Number of read requests responded to by this memory
system.mem_ctrls.num_reads::cpu2.data          739235                       # Number of read requests responded to by this memory
system.mem_ctrls.num_reads::cpu3.inst            1911                       # Number of read requests responded to by this memory
system.mem_ctrls.num_reads::cpu3.data          742690                       # Number of read requests responded to by this memory
system.mem_ctrls.num_reads::total             2965012                       # Number of read requests responded to by this memory
system.mem_ctrls.num_writes::writebacks        986598                       # Number of write requests responded to by this memory
system.mem_ctrls.num_writes::total             986598                       # Number of write requests responded to by this memory
system.mem_ctrls.bw_read::cpu0.inst           2710930                       # Total read bandwidth from this memory (bytes/s)
system.mem_ctrls.bw_read::cpu0.data        1049567410                       # Total read bandwidth from this memory (bytes/s)
system.mem_ctrls.bw_read::cpu1.inst           2701021                       # Total read bandwidth from this memory (bytes/s)
system.mem_ctrls.bw_read::cpu1.data        1039110156                       # Total read bandwidth from this memory (bytes/s)
system.mem_ctrls.bw_read::cpu2.inst           2706683                       # Total read bandwidth from this memory (bytes/s)
system.mem_ctrls.bw_read::cpu2.data        1046482753                       # Total read bandwidth from this memory (bytes/s)
system.mem_ctrls.bw_read::cpu3.inst           2705268                       # Total read bandwidth from this memory (bytes/s)
system.mem_ctrls.bw_read::cpu3.data        1051373753                       # Total read bandwidth from this memory (bytes/s)
system.mem_ctrls.bw_read::total            4197357973                       # Total read bandwidth from this memory (bytes/s)
system.mem_ctrls.bw_inst_read::cpu0.inst      2710930                       # Instruction read bandwidth from this memory (bytes/s)
system.mem_ctrls.bw_inst_read::cpu1.inst      2701021                       # Instruction read bandwidth from this memory (bytes/s)
system.mem_ctrls.bw_inst_read::cpu2.inst      2706683                       # Instruction read bandwidth from this memory (bytes/s)
system.mem_ctrls.bw_inst_read::cpu3.inst      2705268                       # Instruction read bandwidth from this memory (bytes/s)
system.mem_ctrls.bw_inst_read::total         10823902                       # Instruction read bandwidth from this memory (bytes/s)
system.mem_ctrls.bw_write::writebacks      1396657073                       # Write bandwidth from this memory (bytes/s)
system.mem_ctrls.bw_write::total           1396657073                       # Write bandwidth from this memory (bytes/s)
system.mem_ctrls.bw_total::writebacks      1396657073                       # Total bandwidth to/from this memory (bytes/s)
system.mem_ctrls.bw_total::cpu0.inst          2710930                       # Total bandwidth to/from this memory (bytes/s)
system.mem_ctrls.bw_total::cpu0.data       1049567410                       # Total bandwidth to/from this memory (bytes/s)
system.mem_ctrls.bw_total::cpu1.inst          2701021                       # Total bandwidth to/from this memory (bytes/s)
system.mem_ctrls.bw_total::cpu1.data       1039110156                       # Total bandwidth to/from this memory (bytes/s)
system.mem_ctrls.bw_total::cpu2.inst          2706683                       # Total bandwidth to/from this memory (bytes/s)
system.mem_ctrls.bw_total::cpu2.data       1046482753                       # Total bandwidth to/from this memory (bytes/s)
system.mem_ctrls.bw_total::cpu3.inst          2705268                       # Total bandwidth to/from this memory (bytes/s)
system.mem_ctrls.bw_total::cpu3.data       1051373753                       # Total bandwidth to/from this memory (bytes/s)
system.mem_ctrls.bw_total::total           5594015046                       # Total bandwidth to/from this memory (bytes/s)
system.pwrStateResidencyTicks::UNDEFINED  45209574504                       # Cumulative time (in ticks) in various power states
system.cpu0.branchPred.lookups                8104825                       # Number of BP lookups
system.cpu0.branchPred.condPredicted          8104825                       # Number of conditional branches predicted
system.cpu0.branchPred.condIncorrect           156802                       # Number of conditional branches incorrect
system.cpu0.branchPred.BTBLookups             6585741                       # Number of BTB lookups
system.cpu0.branchPred.BTBHits                      0                       # Number of BTB hits
system.cpu0.branchPred.BTBCorrect                   0                       # Number of correct BTB predictions (this stat may not work properly.
system.cpu0.branchPred.BTBHitPct             0.000000                       # BTB Hit Percentage
system.cpu0.branchPred.usedRAS                 721398                       # Number of times the RAS was used to get a target.
system.cpu0.branchPred.RASInCorrect             15949                       # Number of incorrect RAS predictions.
system.cpu0.branchPred.indirectLookups        6585741                       # Number of indirect predictor lookups.
system.cpu0.branchPred.indirectHits           4933521                       # Number of indirect target hits.
system.cpu0.branchPred.indirectMisses         1652220                       # Number of indirect misses.
system.cpu0.branchPredindirectMispredicted        49026                       # Number of mispredicted indirect branches.
system.cpu_voltage_domain.voltage                   1                       # Voltage in Volts
system.cpu_clk_domain.clock                       333                       # Clock period in ticks
system.cpu0.dtb.walker.pwrStateResidencyTicks::UNDEFINED  45209574504                       # Cumulative time (in ticks) in various power states
system.cpu0.dtb.rdAccesses                   26353115                       # TLB accesses on read requests
system.cpu0.dtb.wrAccesses                    8247636                       # TLB accesses on write requests
system.cpu0.dtb.rdMisses                        94511                       # TLB misses on read requests
system.cpu0.dtb.wrMisses                        10905                       # TLB misses on write requests
system.cpu0.apic_clk_domain.clock                5328                       # Clock period in ticks
system.cpu0.interrupts.pwrStateResidencyTicks::UNDEFINED  45209574504                       # Cumulative time (in ticks) in various power states
system.cpu0.itb.walker.pwrStateResidencyTicks::UNDEFINED  45209574504                       # Cumulative time (in ticks) in various power states
system.cpu0.itb.rdAccesses                          0                       # TLB accesses on read requests
system.cpu0.itb.wrAccesses                   11809803                       # TLB accesses on write requests
system.cpu0.itb.rdMisses                            0                       # TLB misses on read requests
system.cpu0.itb.wrMisses                          365                       # TLB misses on write requests
system.cpu0.workload.numSyscalls                   80                       # Number of system calls
system.cpu0.pwrStateResidencyTicks::ON    45209574504                       # Cumulative time (in ticks) in various power states
system.cpu0.numCycles                       135764489                       # number of cpu cycles simulated
system.cpu0.numWorkItemsStarted                     0                       # number of work items this cpu started
system.cpu0.numWorkItemsCompleted                   0                       # number of work items this cpu completed
system.cpu0.fetch.icacheStallCycles          11973419                       # Number of cycles fetch is stalled on an Icache miss
system.cpu0.fetch.Insts                     106239199                       # Number of instructions fetch has processed
system.cpu0.fetch.Branches                    8104825                       # Number of branches that fetch encountered
system.cpu0.fetch.predictedBranches           5654919                       # Number of branches that fetch has predicted taken
system.cpu0.fetch.Cycles                    123451963                       # Number of cycles fetch has run and was not squashing or blocked
system.cpu0.fetch.SquashCycles                 317274                       # Number of cycles fetch has spent squashing
system.cpu0.fetch.MiscStallCycles                 709                       # Number of cycles fetch has spent waiting on interrupts, or bad addresses, or out of MSHRs
system.cpu0.fetch.PendingTrapStallCycles         1662                       # Number of stall cycles due to pending traps
system.cpu0.fetch.PendingQuiesceStallCycles            6                       # Number of stall cycles due to pending quiesce instructions
system.cpu0.fetch.IcacheWaitRetryStallCycles          174                       # Number of stall cycles due to full MSHR
system.cpu0.fetch.CacheLines                 11809542                       # Number of cache lines fetched
system.cpu0.fetch.IcacheSquashes                39113                       # Number of outstanding Icache misses that were squashed
system.cpu0.fetch.rateDist::samples         135586570                       # Number of instructions fetched each cycle (Total)
system.cpu0.fetch.rateDist::mean             1.166910                       # Number of instructions fetched each cycle (Total)
system.cpu0.fetch.rateDist::stdev            2.628358                       # Number of instructions fetched each cycle (Total)
system.cpu0.fetch.rateDist::underflows              0      0.00%      0.00% # Number of instructions fetched each cycle (Total)
system.cpu0.fetch.rateDist::0               109670412     80.89%     80.89% # Number of instructions fetched each cycle (Total)
system.cpu0.fetch.rateDist::1                 2255190      1.66%     82.55% # Number of instructions fetched each cycle (Total)
system.cpu0.fetch.rateDist::2                 1236757      0.91%     83.46% # Number of instructions fetched each cycle (Total)
system.cpu0.fetch.rateDist::3                 1838821      1.36%     84.82% # Number of instructions fetched each cycle (Total)
system.cpu0.fetch.rateDist::4                 1525870      1.13%     85.94% # Number of instructions fetched each cycle (Total)
system.cpu0.fetch.rateDist::5                 1460856      1.08%     87.02% # Number of instructions fetched each cycle (Total)
system.cpu0.fetch.rateDist::6                 1832922      1.35%     88.37% # Number of instructions fetched each cycle (Total)
system.cpu0.fetch.rateDist::7                 2559082      1.89%     90.26% # Number of instructions fetched each cycle (Total)
system.cpu0.fetch.rateDist::8                13206660      9.74%    100.00% # Number of instructions fetched each cycle (Total)
system.cpu0.fetch.rateDist::overflows               0      0.00%    100.00% # Number of instructions fetched each cycle (Total)
system.cpu0.fetch.rateDist::min_value               0                       # Number of instructions fetched each cycle (Total)
system.cpu0.fetch.rateDist::max_value               8                       # Number of instructions fetched each cycle (Total)
system.cpu0.fetch.rateDist::total           135586570                       # Number of instructions fetched each cycle (Total)
system.cpu0.fetch.branchRate                 0.059698                       # Number of branch fetches per cycle
system.cpu0.fetch.rate                       0.782526                       # Number of inst fetches per cycle
system.cpu0.decode.IdleCycles                 8597772                       # Number of cycles decode is idle
system.cpu0.decode.BlockedCycles            104272624                       # Number of cycles decode is blocked
system.cpu0.decode.RunCycles                 17542417                       # Number of cycles decode is running
system.cpu0.decode.UnblockCycles              5015120                       # Number of cycles decode is unblocking
system.cpu0.decode.SquashCycles                158637                       # Number of cycles decode is squashing
system.cpu0.decode.DecodedInsts             156937540                       # Number of instructions handled by decode
system.cpu0.rename.SquashCycles                158637                       # Number of cycles rename is squashing
system.cpu0.rename.IdleCycles                10695557                       # Number of cycles rename is idle
system.cpu0.rename.BlockCycles               55288798                       # Number of cycles rename is blocking
system.cpu0.rename.serializeStallCycles          8917                       # count of cycles rename stalled for serializing inst
system.cpu0.rename.RunCycles                 20291315                       # Number of cycles rename is running
system.cpu0.rename.UnblockCycles             49143346                       # Number of cycles rename is unblocking
system.cpu0.rename.RenamedInsts             156121925                       # Number of instructions processed by rename
system.cpu0.rename.ROBFullEvents               882647                       # Number of times rename has blocked due to ROB full
system.cpu0.rename.IQFullEvents               8701521                       # Number of times rename has blocked due to IQ full
system.cpu0.rename.LQFullEvents               8536470                       # Number of times rename has blocked due to LQ full
system.cpu0.rename.SQFullEvents              31975834                       # Number of times rename has blocked due to SQ full
system.cpu0.rename.RenamedOperands          185676207                       # Number of destination operands rename has renamed
system.cpu0.rename.RenameLookups            397666351                       # Number of register rename lookups that rename has made
system.cpu0.rename.int_rename_lookups       163489106                       # Number of integer rename lookups
system.cpu0.rename.fp_rename_lookups        137796469                       # Number of floating rename lookups
system.cpu0.rename.CommittedMaps            175370589                       # Number of HB maps that are committed
system.cpu0.rename.UndoneMaps                10305380                       # Number of HB maps that are undone due to squashing
system.cpu0.rename.serializingInsts               246                       # count of serializing insts renamed
system.cpu0.rename.tempSerializingInsts           252                       # count of temporary serializing insts renamed
system.cpu0.rename.skidInsts                 27043168                       # count of insts added to the skid buffer
system.cpu0.memDep0.insertedLoads            25517797                       # Number of loads inserted to the mem dependence unit.
system.cpu0.memDep0.insertedStores            8429641                       # Number of stores inserted to the mem dependence unit.
system.cpu0.memDep0.conflictingLoads          1040572                       # Number of conflicting loads.
system.cpu0.memDep0.conflictingStores          758003                       # Number of conflicting stores.
system.cpu0.iq.iqInstsAdded                 154893461                       # Number of instructions added to the IQ (excludes non-spec)
system.cpu0.iq.iqNonSpecInstsAdded               2095                       # Number of non-speculative instructions added to the IQ
system.cpu0.iq.iqInstsIssued                153164408                       # Number of instructions issued
system.cpu0.iq.iqSquashedInstsIssued            20801                       # Number of squashed instructions issued
system.cpu0.iq.iqSquashedInstsExamined        7661685                       # Number of squashed instructions iterated over during squash; mainly for profiling
system.cpu0.iq.iqSquashedOperandsExamined      9724976                       # Number of squashed operands that are examined and possibly removed from graph
system.cpu0.iq.iqSquashedNonSpecRemoved          1721                       # Number of squashed non-spec instructions that were removed
system.cpu0.iq.issued_per_cycle::samples    135586570                       # Number of insts issued each cycle
system.cpu0.iq.issued_per_cycle::mean        1.129643                       # Number of insts issued each cycle
system.cpu0.iq.issued_per_cycle::stdev       2.021982                       # Number of insts issued each cycle
system.cpu0.iq.issued_per_cycle::underflows            0      0.00%      0.00% # Number of insts issued each cycle
system.cpu0.iq.issued_per_cycle::0           92232126     68.02%     68.02% # Number of insts issued each cycle
system.cpu0.iq.issued_per_cycle::1            8139296      6.00%     74.03% # Number of insts issued each cycle
system.cpu0.iq.issued_per_cycle::2            8597377      6.34%     80.37% # Number of insts issued each cycle
system.cpu0.iq.issued_per_cycle::3            8013116      5.91%     86.28% # Number of insts issued each cycle
system.cpu0.iq.issued_per_cycle::4            5454027      4.02%     90.30% # Number of insts issued each cycle
system.cpu0.iq.issued_per_cycle::5            3975012      2.93%     93.23% # Number of insts issued each cycle
system.cpu0.iq.issued_per_cycle::6            4202463      3.10%     96.33% # Number of insts issued each cycle
system.cpu0.iq.issued_per_cycle::7            2900160      2.14%     98.47% # Number of insts issued each cycle
system.cpu0.iq.issued_per_cycle::8            2072993      1.53%    100.00% # Number of insts issued each cycle
system.cpu0.iq.issued_per_cycle::overflows            0      0.00%    100.00% # Number of insts issued each cycle
system.cpu0.iq.issued_per_cycle::min_value            0                       # Number of insts issued each cycle
system.cpu0.iq.issued_per_cycle::max_value            8                       # Number of insts issued each cycle
system.cpu0.iq.issued_per_cycle::total      135586570                       # Number of insts issued each cycle
system.cpu0.iq.fu_full::No_OpClass                  0      0.00%      0.00% # attempts to use FU when none available
system.cpu0.iq.fu_full::IntAlu                 533181     27.26%     27.26% # attempts to use FU when none available
system.cpu0.iq.fu_full::IntMult                     0      0.00%     27.26% # attempts to use FU when none available
system.cpu0.iq.fu_full::IntDiv                      0      0.00%     27.26% # attempts to use FU when none available
system.cpu0.iq.fu_full::FloatAdd               760867     38.90%     66.16% # attempts to use FU when none available
system.cpu0.iq.fu_full::FloatCmp                    0      0.00%     66.16% # attempts to use FU when none available
system.cpu0.iq.fu_full::FloatCvt                    0      0.00%     66.16% # attempts to use FU when none available
system.cpu0.iq.fu_full::FloatMult                   0      0.00%     66.16% # attempts to use FU when none available
system.cpu0.iq.fu_full::FloatMultAcc                0      0.00%     66.16% # attempts to use FU when none available
system.cpu0.iq.fu_full::FloatDiv                    0      0.00%     66.16% # attempts to use FU when none available
system.cpu0.iq.fu_full::FloatMisc                   0      0.00%     66.16% # attempts to use FU when none available
system.cpu0.iq.fu_full::FloatSqrt                   0      0.00%     66.16% # attempts to use FU when none available
system.cpu0.iq.fu_full::SimdAdd                     0      0.00%     66.16% # attempts to use FU when none available
system.cpu0.iq.fu_full::SimdAddAcc                  0      0.00%     66.16% # attempts to use FU when none available
system.cpu0.iq.fu_full::SimdAlu                     0      0.00%     66.16% # attempts to use FU when none available
system.cpu0.iq.fu_full::SimdCmp                     0      0.00%     66.16% # attempts to use FU when none available
system.cpu0.iq.fu_full::SimdCvt                     0      0.00%     66.16% # attempts to use FU when none available
system.cpu0.iq.fu_full::SimdMisc                    0      0.00%     66.16% # attempts to use FU when none available
system.cpu0.iq.fu_full::SimdMult                    0      0.00%     66.16% # attempts to use FU when none available
system.cpu0.iq.fu_full::SimdMultAcc                 0      0.00%     66.16% # attempts to use FU when none available
system.cpu0.iq.fu_full::SimdShift                   0      0.00%     66.16% # attempts to use FU when none available
system.cpu0.iq.fu_full::SimdShiftAcc                0      0.00%     66.16% # attempts to use FU when none available
system.cpu0.iq.fu_full::SimdSqrt                    0      0.00%     66.16% # attempts to use FU when none available
system.cpu0.iq.fu_full::SimdFloatAdd                0      0.00%     66.16% # attempts to use FU when none available
system.cpu0.iq.fu_full::SimdFloatAlu                0      0.00%     66.16% # attempts to use FU when none available
system.cpu0.iq.fu_full::SimdFloatCmp                0      0.00%     66.16% # attempts to use FU when none available
system.cpu0.iq.fu_full::SimdFloatCvt                0      0.00%     66.16% # attempts to use FU when none available
system.cpu0.iq.fu_full::SimdFloatDiv                0      0.00%     66.16% # attempts to use FU when none available
system.cpu0.iq.fu_full::SimdFloatMisc               0      0.00%     66.16% # attempts to use FU when none available
system.cpu0.iq.fu_full::SimdFloatMult               0      0.00%     66.16% # attempts to use FU when none available
system.cpu0.iq.fu_full::SimdFloatMultAcc            0      0.00%     66.16% # attempts to use FU when none available
system.cpu0.iq.fu_full::SimdFloatSqrt               0      0.00%     66.16% # attempts to use FU when none available
system.cpu0.iq.fu_full::MemRead                 61906      3.17%     69.33% # attempts to use FU when none available
system.cpu0.iq.fu_full::MemWrite                31015      1.59%     70.92% # attempts to use FU when none available
system.cpu0.iq.fu_full::FloatMemRead           562283     28.75%     99.66% # attempts to use FU when none available
system.cpu0.iq.fu_full::FloatMemWrite            6552      0.34%    100.00% # attempts to use FU when none available
system.cpu0.iq.fu_full::IprAccess                   0      0.00%    100.00% # attempts to use FU when none available
system.cpu0.iq.fu_full::InstPrefetch                0      0.00%    100.00% # attempts to use FU when none available
system.cpu0.iq.FU_type_0::No_OpClass           227967      0.15%      0.15% # Type of FU issued
system.cpu0.iq.FU_type_0::IntAlu             82270521     53.71%     53.86% # Type of FU issued
system.cpu0.iq.FU_type_0::IntMult              265106      0.17%     54.04% # Type of FU issued
system.cpu0.iq.FU_type_0::IntDiv              1344411      0.88%     54.91% # Type of FU issued
system.cpu0.iq.FU_type_0::FloatAdd           34380991     22.45%     77.36% # Type of FU issued
system.cpu0.iq.FU_type_0::FloatCmp                  0      0.00%     77.36% # Type of FU issued
system.cpu0.iq.FU_type_0::FloatCvt                  0      0.00%     77.36% # Type of FU issued
system.cpu0.iq.FU_type_0::FloatMult                 0      0.00%     77.36% # Type of FU issued
system.cpu0.iq.FU_type_0::FloatMultAcc              0      0.00%     77.36% # Type of FU issued
system.cpu0.iq.FU_type_0::FloatDiv                  0      0.00%     77.36% # Type of FU issued
system.cpu0.iq.FU_type_0::FloatMisc                 0      0.00%     77.36% # Type of FU issued
system.cpu0.iq.FU_type_0::FloatSqrt                 0      0.00%     77.36% # Type of FU issued
system.cpu0.iq.FU_type_0::SimdAdd                   0      0.00%     77.36% # Type of FU issued
system.cpu0.iq.FU_type_0::SimdAddAcc                0      0.00%     77.36% # Type of FU issued
system.cpu0.iq.FU_type_0::SimdAlu                   0      0.00%     77.36% # Type of FU issued
system.cpu0.iq.FU_type_0::SimdCmp                   0      0.00%     77.36% # Type of FU issued
system.cpu0.iq.FU_type_0::SimdCvt                   0      0.00%     77.36% # Type of FU issued
system.cpu0.iq.FU_type_0::SimdMisc                  0      0.00%     77.36% # Type of FU issued
system.cpu0.iq.FU_type_0::SimdMult                  0      0.00%     77.36% # Type of FU issued
system.cpu0.iq.FU_type_0::SimdMultAcc               0      0.00%     77.36% # Type of FU issued
system.cpu0.iq.FU_type_0::SimdShift                 0      0.00%     77.36% # Type of FU issued
system.cpu0.iq.FU_type_0::SimdShiftAcc              0      0.00%     77.36% # Type of FU issued
system.cpu0.iq.FU_type_0::SimdSqrt                  0      0.00%     77.36% # Type of FU issued
system.cpu0.iq.FU_type_0::SimdFloatAdd              0      0.00%     77.36% # Type of FU issued
system.cpu0.iq.FU_type_0::SimdFloatAlu              0      0.00%     77.36% # Type of FU issued
system.cpu0.iq.FU_type_0::SimdFloatCmp              0      0.00%     77.36% # Type of FU issued
system.cpu0.iq.FU_type_0::SimdFloatCvt              0      0.00%     77.36% # Type of FU issued
system.cpu0.iq.FU_type_0::SimdFloatDiv              0      0.00%     77.36% # Type of FU issued
system.cpu0.iq.FU_type_0::SimdFloatMisc             0      0.00%     77.36% # Type of FU issued
system.cpu0.iq.FU_type_0::SimdFloatMult             0      0.00%     77.36% # Type of FU issued
system.cpu0.iq.FU_type_0::SimdFloatMultAcc            0      0.00%     77.36% # Type of FU issued
system.cpu0.iq.FU_type_0::SimdFloatSqrt             0      0.00%     77.36% # Type of FU issued
system.cpu0.iq.FU_type_0::MemRead             5902848      3.85%     81.21% # Type of FU issued
system.cpu0.iq.FU_type_0::MemWrite            2864998      1.87%     83.09% # Type of FU issued
system.cpu0.iq.FU_type_0::FloatMemRead       20495040     13.38%     96.47% # Type of FU issued
system.cpu0.iq.FU_type_0::FloatMemWrite       5412526      3.53%    100.00% # Type of FU issued
system.cpu0.iq.FU_type_0::IprAccess                 0      0.00%    100.00% # Type of FU issued
system.cpu0.iq.FU_type_0::InstPrefetch              0      0.00%    100.00% # Type of FU issued
system.cpu0.iq.FU_type_0::total             153164408                       # Type of FU issued
system.cpu0.iq.rate                          1.128163                       # Inst issue rate
system.cpu0.iq.fu_busy_cnt                    1955804                       # FU busy when requested
system.cpu0.iq.fu_busy_rate                  0.012769                       # FU busy rate (busy events/executed inst)
system.cpu0.iq.int_inst_queue_reads         293289398                       # Number of integer instruction queue reads
system.cpu0.iq.int_inst_queue_writes         84901150                       # Number of integer instruction queue writes
system.cpu0.iq.int_inst_queue_wakeup_accesses     78137501                       # Number of integer instruction queue wakeup accesses
system.cpu0.iq.fp_inst_queue_reads          150602589                       # Number of floating instruction queue reads
system.cpu0.iq.fp_inst_queue_writes          77657924                       # Number of floating instruction queue writes
system.cpu0.iq.fp_inst_queue_wakeup_accesses     73384224                       # Number of floating instruction queue wakeup accesses
system.cpu0.iq.vec_inst_queue_reads                 0                       # Number of vector instruction queue reads
system.cpu0.iq.vec_inst_queue_writes                0                       # Number of vector instruction queue writes
system.cpu0.iq.vec_inst_queue_wakeup_accesses            0                       # Number of vector instruction queue wakeup accesses
system.cpu0.iq.int_alu_accesses              78923289                       # Number of integer alu accesses
system.cpu0.iq.fp_alu_accesses               75968956                       # Number of floating point alu accesses
system.cpu0.iq.vec_alu_accesses                     0                       # Number of vector alu accesses
system.cpu0.iew.lsq.thread0.forwLoads         2121892                       # Number of loads that had data forwarded from stores
system.cpu0.iew.lsq.thread0.invAddrLoads            0                       # Number of loads ignored due to an invalid address
system.cpu0.iew.lsq.thread0.squashedLoads      1025500                       # Number of loads squashed
system.cpu0.iew.lsq.thread0.ignoredResponses         1451                       # Number of memory responses ignored because the instruction is squashed
system.cpu0.iew.lsq.thread0.memOrderViolation         1875                       # Number of memory ordering violations
system.cpu0.iew.lsq.thread0.squashedStores       389942                       # Number of stores squashed
system.cpu0.iew.lsq.thread0.invAddrSwpfs            0                       # Number of software prefetches ignored due to an invalid address
system.cpu0.iew.lsq.thread0.blockedLoads            0                       # Number of blocked loads due to partial load-store forwarding
system.cpu0.iew.lsq.thread0.rescheduledLoads          223                       # Number of loads that were rescheduled
system.cpu0.iew.lsq.thread0.cacheBlocked      1258701                       # Number of times an access to memory failed due to the cache being blocked
system.cpu0.iew.iewIdleCycles                       0                       # Number of cycles IEW is idle
system.cpu0.iew.iewSquashCycles                158637                       # Number of cycles IEW is squashing
system.cpu0.iew.iewBlockCycles               39977879                       # Number of cycles IEW is blocking
system.cpu0.iew.iewUnblockCycles             10059150                       # Number of cycles IEW is unblocking
system.cpu0.iew.iewDispatchedInsts          154895556                       # Number of instructions dispatched to IQ
system.cpu0.iew.iewDispSquashedInsts            11056                       # Number of squashed instructions skipped by dispatch
system.cpu0.iew.iewDispLoadInsts             25517797                       # Number of dispatched load instructions
system.cpu0.iew.iewDispStoreInsts             8429641                       # Number of dispatched store instructions
system.cpu0.iew.iewDispNonSpecInsts               853                       # Number of dispatched non-speculative instructions
system.cpu0.iew.iewIQFullEvents                307365                       # Number of times the IQ has become full, causing a stall
system.cpu0.iew.iewLSQFullEvents              9519308                       # Number of times the LSQ has become full, causing a stall
system.cpu0.iew.memOrderViolationEvents          1875                       # Number of memory order violations
system.cpu0.iew.predictedTakenIncorrect         73831                       # Number of branches that were predicted taken incorrectly
system.cpu0.iew.predictedNotTakenIncorrect       105440                       # Number of branches that were predicted not taken incorrectly
system.cpu0.iew.branchMispredicts              179271                       # Number of branch mispredicts detected at execute
system.cpu0.iew.iewExecutedInsts            152830915                       # Number of executed instructions
system.cpu0.iew.iewExecLoadInsts             26352906                       # Number of load instructions executed
system.cpu0.iew.iewExecSquashedInsts           333489                       # Number of squashed instructions skipped in execute
system.cpu0.iew.exec_swp                            0                       # number of swp insts executed
system.cpu0.iew.exec_nop                            0                       # number of nop insts executed
system.cpu0.iew.exec_refs                    34600508                       # number of memory reference insts executed
system.cpu0.iew.exec_branches                 7494080                       # Number of branches executed
system.cpu0.iew.exec_stores                   8247602                       # Number of stores executed
system.cpu0.iew.exec_rate                    1.125706                       # Inst execution rate
system.cpu0.iew.wb_sent                     151580806                       # cumulative count of insts sent to commit
system.cpu0.iew.wb_count                    151521725                       # cumulative count of insts written-back
system.cpu0.iew.wb_producers                117149738                       # num instructions producing a value
system.cpu0.iew.wb_consumers                206655023                       # num instructions consuming a value
system.cpu0.iew.wb_rate                      1.116063                       # insts written-back per cycle
system.cpu0.iew.wb_fanout                    0.566886                       # average fanout of values written-back
system.cpu0.commit.commitSquashedInsts        7662142                       # The number of squashed insts skipped by commit
system.cpu0.commit.commitNonSpecStalls            374                       # The number of times commit has been forced to stall to communicate backwards
system.cpu0.commit.branchMispredicts           156983                       # The number of times a branch was mispredicted
system.cpu0.commit.committed_per_cycle::samples    134532441                       # Number of insts commited each cycle
system.cpu0.commit.committed_per_cycle::mean     1.094410                       # Number of insts commited each cycle
system.cpu0.commit.committed_per_cycle::stdev     2.435627                       # Number of insts commited each cycle
system.cpu0.commit.committed_per_cycle::underflows            0      0.00%      0.00% # Number of insts commited each cycle
system.cpu0.commit.committed_per_cycle::0    102939591     76.52%     76.52% # Number of insts commited each cycle
system.cpu0.commit.committed_per_cycle::1      7346202      5.46%     81.98% # Number of insts commited each cycle
system.cpu0.commit.committed_per_cycle::2      4115069      3.06%     85.04% # Number of insts commited each cycle
system.cpu0.commit.committed_per_cycle::3      2785687      2.07%     87.11% # Number of insts commited each cycle
system.cpu0.commit.committed_per_cycle::4      1886936      1.40%     88.51% # Number of insts commited each cycle
system.cpu0.commit.committed_per_cycle::5      1040880      0.77%     89.28% # Number of insts commited each cycle
system.cpu0.commit.committed_per_cycle::6      1658634      1.23%     90.52% # Number of insts commited each cycle
system.cpu0.commit.committed_per_cycle::7      1479192      1.10%     91.62% # Number of insts commited each cycle
system.cpu0.commit.committed_per_cycle::8     11280250      8.38%    100.00% # Number of insts commited each cycle
system.cpu0.commit.committed_per_cycle::overflows            0      0.00%    100.00% # Number of insts commited each cycle
system.cpu0.commit.committed_per_cycle::min_value            0                       # Number of insts commited each cycle
system.cpu0.commit.committed_per_cycle::max_value            8                       # Number of insts commited each cycle
system.cpu0.commit.committed_per_cycle::total    134532441                       # Number of insts commited each cycle
system.cpu0.commit.committedInsts            99831732                       # Number of instructions committed
system.cpu0.commit.committedOps             147233693                       # Number of ops (including micro ops) committed
system.cpu0.commit.swp_count                        0                       # Number of s/w prefetches committed
system.cpu0.commit.refs                      32531953                       # Number of memory references committed
system.cpu0.commit.loads                     24492266                       # Number of loads committed
system.cpu0.commit.membars                        196                       # Number of memory barriers committed
system.cpu0.commit.branches                   7278013                       # Number of branches committed
system.cpu0.commit.vec_insts                        0                       # Number of committed Vector instructions.
system.cpu0.commit.fp_insts                  72197162                       # Number of committed floating point instructions.
system.cpu0.commit.int_insts                 99560338                       # Number of committed integer instructions.
system.cpu0.commit.function_calls              648084                       # Number of function calls committed.
system.cpu0.commit.op_class_0::No_OpClass       204819      0.14%      0.14% # Class of committed instruction
system.cpu0.commit.op_class_0::IntAlu        79023592     53.67%     53.81% # Class of committed instruction
system.cpu0.commit.op_class_0::IntMult         255077      0.17%     53.98% # Class of committed instruction
system.cpu0.commit.op_class_0::IntDiv         1344329      0.91%     54.90% # Class of committed instruction
system.cpu0.commit.op_class_0::FloatAdd      33873923     23.01%     77.90% # Class of committed instruction
system.cpu0.commit.op_class_0::FloatCmp             0      0.00%     77.90% # Class of committed instruction
system.cpu0.commit.op_class_0::FloatCvt             0      0.00%     77.90% # Class of committed instruction
system.cpu0.commit.op_class_0::FloatMult            0      0.00%     77.90% # Class of committed instruction
system.cpu0.commit.op_class_0::FloatMultAcc            0      0.00%     77.90% # Class of committed instruction
system.cpu0.commit.op_class_0::FloatDiv             0      0.00%     77.90% # Class of committed instruction
system.cpu0.commit.op_class_0::FloatMisc            0      0.00%     77.90% # Class of committed instruction
system.cpu0.commit.op_class_0::FloatSqrt            0      0.00%     77.90% # Class of committed instruction
system.cpu0.commit.op_class_0::SimdAdd              0      0.00%     77.90% # Class of committed instruction
system.cpu0.commit.op_class_0::SimdAddAcc            0      0.00%     77.90% # Class of committed instruction
system.cpu0.commit.op_class_0::SimdAlu              0      0.00%     77.90% # Class of committed instruction
system.cpu0.commit.op_class_0::SimdCmp              0      0.00%     77.90% # Class of committed instruction
system.cpu0.commit.op_class_0::SimdCvt              0      0.00%     77.90% # Class of committed instruction
system.cpu0.commit.op_class_0::SimdMisc             0      0.00%     77.90% # Class of committed instruction
system.cpu0.commit.op_class_0::SimdMult             0      0.00%     77.90% # Class of committed instruction
system.cpu0.commit.op_class_0::SimdMultAcc            0      0.00%     77.90% # Class of committed instruction
system.cpu0.commit.op_class_0::SimdShift            0      0.00%     77.90% # Class of committed instruction
system.cpu0.commit.op_class_0::SimdShiftAcc            0      0.00%     77.90% # Class of committed instruction
system.cpu0.commit.op_class_0::SimdSqrt             0      0.00%     77.90% # Class of committed instruction
system.cpu0.commit.op_class_0::SimdFloatAdd            0      0.00%     77.90% # Class of committed instruction
system.cpu0.commit.op_class_0::SimdFloatAlu            0      0.00%     77.90% # Class of committed instruction
system.cpu0.commit.op_class_0::SimdFloatCmp            0      0.00%     77.90% # Class of committed instruction
system.cpu0.commit.op_class_0::SimdFloatCvt            0      0.00%     77.90% # Class of committed instruction
system.cpu0.commit.op_class_0::SimdFloatDiv            0      0.00%     77.90% # Class of committed instruction
system.cpu0.commit.op_class_0::SimdFloatMisc            0      0.00%     77.90% # Class of committed instruction
system.cpu0.commit.op_class_0::SimdFloatMult            0      0.00%     77.90% # Class of committed instruction
system.cpu0.commit.op_class_0::SimdFloatMultAcc            0      0.00%     77.90% # Class of committed instruction
system.cpu0.commit.op_class_0::SimdFloatSqrt            0      0.00%     77.90% # Class of committed instruction
system.cpu0.commit.op_class_0::MemRead        5502129      3.74%     81.64% # Class of committed instruction
system.cpu0.commit.op_class_0::MemWrite       2655543      1.80%     83.45% # Class of committed instruction
system.cpu0.commit.op_class_0::FloatMemRead     18990137     12.90%     96.34% # Class of committed instruction
system.cpu0.commit.op_class_0::FloatMemWrite      5384144      3.66%    100.00% # Class of committed instruction
system.cpu0.commit.op_class_0::IprAccess            0      0.00%    100.00% # Class of committed instruction
system.cpu0.commit.op_class_0::InstPrefetch            0      0.00%    100.00% # Class of committed instruction
system.cpu0.commit.op_class_0::total        147233693                       # Class of committed instruction
system.cpu0.commit.bw_lim_events             11280250                       # number cycles where commit BW limit reached
system.cpu0.rob.rob_reads                   278148026                       # The number of ROB reads
system.cpu0.rob.rob_writes                  310851449                       # The number of ROB writes
system.cpu0.timesIdled                           1187                       # Number of times that the entire CPU went into an idle state and unscheduled itself
system.cpu0.idleCycles                         177919                       # Total number of cycles that the CPU has spent unscheduled due to idling
system.cpu0.committedInsts                   99831732                       # Number of Instructions Simulated
system.cpu0.committedOps                    147233693                       # Number of Ops (including micro ops) Simulated
system.cpu0.cpi                              1.359933                       # CPI: Cycles Per Instruction
system.cpu0.cpi_total                        1.359933                       # CPI: Total CPI of All Threads
system.cpu0.ipc                              0.735330                       # IPC: Instructions Per Cycle
system.cpu0.ipc_total                        0.735330                       # IPC: Total IPC of All Threads
system.cpu0.int_regfile_reads               160680443                       # number of integer regfile reads
system.cpu0.int_regfile_writes               70952434                       # number of integer regfile writes
system.cpu0.fp_regfile_reads                134026124                       # number of floating regfile reads
system.cpu0.fp_regfile_writes                67421966                       # number of floating regfile writes
system.cpu0.cc_regfile_reads                 43004748                       # number of cc regfile reads
system.cpu0.cc_regfile_writes                41787406                       # number of cc regfile writes
system.cpu0.misc_regfile_reads               50807600                       # number of misc regfile reads
system.cpu0.dcache.tags.pwrStateResidencyTicks::UNDEFINED  45209574504                       # Cumulative time (in ticks) in various power states
system.cpu0.dcache.tags.replacements          1025895                       # number of replacements
system.cpu0.dcache.tags.tagsinuse          511.609593                       # Cycle average of tags in use
system.cpu0.dcache.tags.total_refs           27218583                       # Total number of references to valid blocks.
system.cpu0.dcache.tags.sampled_refs          1026407                       # Sample count of references to valid blocks.
system.cpu0.dcache.tags.avg_refs            26.518314                       # Average number of references to valid blocks.
system.cpu0.dcache.tags.warmup_cycle           150183                       # Cycle when the warmup percentage was hit.
system.cpu0.dcache.tags.occ_blocks::cpu0.data   511.609593                       # Average occupied blocks per requestor
system.cpu0.dcache.tags.occ_percent::cpu0.data     0.999237                       # Average percentage of cache occupancy
system.cpu0.dcache.tags.occ_percent::total     0.999237                       # Average percentage of cache occupancy
system.cpu0.dcache.tags.occ_task_id_blocks::1024          512                       # Occupied blocks per task id
system.cpu0.dcache.tags.age_task_id_blocks_1024::0          154                       # Occupied blocks per task id
system.cpu0.dcache.tags.age_task_id_blocks_1024::1          355                       # Occupied blocks per task id
system.cpu0.dcache.tags.age_task_id_blocks_1024::3            3                       # Occupied blocks per task id
system.cpu0.dcache.tags.occ_task_id_percent::1024            1                       # Percentage of cache occupancy per task id
system.cpu0.dcache.tags.tag_accesses        249714647                       # Number of tag accesses
system.cpu0.dcache.tags.data_accesses       249714647                       # Number of data accesses
system.cpu0.dcache.pwrStateResidencyTicks::UNDEFINED  45209574504                       # Cumulative time (in ticks) in various power states
system.cpu0.dcache.ReadReq_hits::cpu0.data     19452435                       # number of ReadReq hits
system.cpu0.dcache.ReadReq_hits::total       19452435                       # number of ReadReq hits
system.cpu0.dcache.WriteReq_hits::cpu0.data      7712635                       # number of WriteReq hits
system.cpu0.dcache.WriteReq_hits::total       7712635                       # number of WriteReq hits
system.cpu0.dcache.demand_hits::cpu0.data     27165070                       # number of demand (read+write) hits
system.cpu0.dcache.demand_hits::total        27165070                       # number of demand (read+write) hits
system.cpu0.dcache.overall_hits::cpu0.data     27165070                       # number of overall hits
system.cpu0.dcache.overall_hits::total       27165070                       # number of overall hits
system.cpu0.dcache.ReadReq_misses::cpu0.data      3593894                       # number of ReadReq misses
system.cpu0.dcache.ReadReq_misses::total      3593894                       # number of ReadReq misses
system.cpu0.dcache.WriteReq_misses::cpu0.data       327066                       # number of WriteReq misses
system.cpu0.dcache.WriteReq_misses::total       327066                       # number of WriteReq misses
system.cpu0.dcache.demand_misses::cpu0.data      3920960                       # number of demand (read+write) misses
system.cpu0.dcache.demand_misses::total       3920960                       # number of demand (read+write) misses
system.cpu0.dcache.overall_misses::cpu0.data      3920960                       # number of overall misses
system.cpu0.dcache.overall_misses::total      3920960                       # number of overall misses
system.cpu0.dcache.ReadReq_miss_latency::cpu0.data 197979865290                       # number of ReadReq miss cycles
system.cpu0.dcache.ReadReq_miss_latency::total 197979865290                       # number of ReadReq miss cycles
system.cpu0.dcache.WriteReq_miss_latency::cpu0.data  18309127547                       # number of WriteReq miss cycles
system.cpu0.dcache.WriteReq_miss_latency::total  18309127547                       # number of WriteReq miss cycles
system.cpu0.dcache.demand_miss_latency::cpu0.data 216288992837                       # number of demand (read+write) miss cycles
system.cpu0.dcache.demand_miss_latency::total 216288992837                       # number of demand (read+write) miss cycles
system.cpu0.dcache.overall_miss_latency::cpu0.data 216288992837                       # number of overall miss cycles
system.cpu0.dcache.overall_miss_latency::total 216288992837                       # number of overall miss cycles
system.cpu0.dcache.ReadReq_accesses::cpu0.data     23046329                       # number of ReadReq accesses(hits+misses)
system.cpu0.dcache.ReadReq_accesses::total     23046329                       # number of ReadReq accesses(hits+misses)
system.cpu0.dcache.WriteReq_accesses::cpu0.data      8039701                       # number of WriteReq accesses(hits+misses)
system.cpu0.dcache.WriteReq_accesses::total      8039701                       # number of WriteReq accesses(hits+misses)
system.cpu0.dcache.demand_accesses::cpu0.data     31086030                       # number of demand (read+write) accesses
system.cpu0.dcache.demand_accesses::total     31086030                       # number of demand (read+write) accesses
system.cpu0.dcache.overall_accesses::cpu0.data     31086030                       # number of overall (read+write) accesses
system.cpu0.dcache.overall_accesses::total     31086030                       # number of overall (read+write) accesses
system.cpu0.dcache.ReadReq_miss_rate::cpu0.data     0.155942                       # miss rate for ReadReq accesses
system.cpu0.dcache.ReadReq_miss_rate::total     0.155942                       # miss rate for ReadReq accesses
system.cpu0.dcache.WriteReq_miss_rate::cpu0.data     0.040681                       # miss rate for WriteReq accesses
system.cpu0.dcache.WriteReq_miss_rate::total     0.040681                       # miss rate for WriteReq accesses
system.cpu0.dcache.demand_miss_rate::cpu0.data     0.126133                       # miss rate for demand accesses
system.cpu0.dcache.demand_miss_rate::total     0.126133                       # miss rate for demand accesses
system.cpu0.dcache.overall_miss_rate::cpu0.data     0.126133                       # miss rate for overall accesses
system.cpu0.dcache.overall_miss_rate::total     0.126133                       # miss rate for overall accesses
system.cpu0.dcache.ReadReq_avg_miss_latency::cpu0.data 55087.842126                       # average ReadReq miss latency
system.cpu0.dcache.ReadReq_avg_miss_latency::total 55087.842126                       # average ReadReq miss latency
system.cpu0.dcache.WriteReq_avg_miss_latency::cpu0.data 55979.917041                       # average WriteReq miss latency
system.cpu0.dcache.WriteReq_avg_miss_latency::total 55979.917041                       # average WriteReq miss latency
system.cpu0.dcache.demand_avg_miss_latency::cpu0.data 55162.254355                       # average overall miss latency
system.cpu0.dcache.demand_avg_miss_latency::total 55162.254355                       # average overall miss latency
system.cpu0.dcache.overall_avg_miss_latency::cpu0.data 55162.254355                       # average overall miss latency
system.cpu0.dcache.overall_avg_miss_latency::total 55162.254355                       # average overall miss latency
system.cpu0.dcache.blocked_cycles::no_mshrs     13058625                       # number of cycles access was blocked
system.cpu0.dcache.blocked_cycles::no_targets            0                       # number of cycles access was blocked
system.cpu0.dcache.blocked::no_mshrs           191070                       # number of cycles access was blocked
system.cpu0.dcache.blocked::no_targets              0                       # number of cycles access was blocked
system.cpu0.dcache.avg_blocked_cycles::no_mshrs    68.344717                       # average number of cycles each access was blocked
system.cpu0.dcache.avg_blocked_cycles::no_targets          nan                       # average number of cycles each access was blocked
system.cpu0.dcache.writebacks::writebacks       446623                       # number of writebacks
system.cpu0.dcache.writebacks::total           446623                       # number of writebacks
system.cpu0.dcache.ReadReq_mshr_hits::cpu0.data      2842929                       # number of ReadReq MSHR hits
system.cpu0.dcache.ReadReq_mshr_hits::total      2842929                       # number of ReadReq MSHR hits
system.cpu0.dcache.WriteReq_mshr_hits::cpu0.data          287                       # number of WriteReq MSHR hits
system.cpu0.dcache.WriteReq_mshr_hits::total          287                       # number of WriteReq MSHR hits
system.cpu0.dcache.demand_mshr_hits::cpu0.data      2843216                       # number of demand (read+write) MSHR hits
system.cpu0.dcache.demand_mshr_hits::total      2843216                       # number of demand (read+write) MSHR hits
system.cpu0.dcache.overall_mshr_hits::cpu0.data      2843216                       # number of overall MSHR hits
system.cpu0.dcache.overall_mshr_hits::total      2843216                       # number of overall MSHR hits
system.cpu0.dcache.ReadReq_mshr_misses::cpu0.data       750965                       # number of ReadReq MSHR misses
system.cpu0.dcache.ReadReq_mshr_misses::total       750965                       # number of ReadReq MSHR misses
system.cpu0.dcache.WriteReq_mshr_misses::cpu0.data       326779                       # number of WriteReq MSHR misses
system.cpu0.dcache.WriteReq_mshr_misses::total       326779                       # number of WriteReq MSHR misses
system.cpu0.dcache.demand_mshr_misses::cpu0.data      1077744                       # number of demand (read+write) MSHR misses
system.cpu0.dcache.demand_mshr_misses::total      1077744                       # number of demand (read+write) MSHR misses
system.cpu0.dcache.overall_mshr_misses::cpu0.data      1077744                       # number of overall MSHR misses
system.cpu0.dcache.overall_mshr_misses::total      1077744                       # number of overall MSHR misses
system.cpu0.dcache.ReadReq_mshr_miss_latency::cpu0.data  50559439950                       # number of ReadReq MSHR miss cycles
system.cpu0.dcache.ReadReq_mshr_miss_latency::total  50559439950                       # number of ReadReq MSHR miss cycles
system.cpu0.dcache.WriteReq_mshr_miss_latency::cpu0.data  18083929971                       # number of WriteReq MSHR miss cycles
system.cpu0.dcache.WriteReq_mshr_miss_latency::total  18083929971                       # number of WriteReq MSHR miss cycles
system.cpu0.dcache.demand_mshr_miss_latency::cpu0.data  68643369921                       # number of demand (read+write) MSHR miss cycles
system.cpu0.dcache.demand_mshr_miss_latency::total  68643369921                       # number of demand (read+write) MSHR miss cycles
system.cpu0.dcache.overall_mshr_miss_latency::cpu0.data  68643369921                       # number of overall MSHR miss cycles
system.cpu0.dcache.overall_mshr_miss_latency::total  68643369921                       # number of overall MSHR miss cycles
system.cpu0.dcache.ReadReq_mshr_miss_rate::cpu0.data     0.032585                       # mshr miss rate for ReadReq accesses
system.cpu0.dcache.ReadReq_mshr_miss_rate::total     0.032585                       # mshr miss rate for ReadReq accesses
system.cpu0.dcache.WriteReq_mshr_miss_rate::cpu0.data     0.040646                       # mshr miss rate for WriteReq accesses
system.cpu0.dcache.WriteReq_mshr_miss_rate::total     0.040646                       # mshr miss rate for WriteReq accesses
system.cpu0.dcache.demand_mshr_miss_rate::cpu0.data     0.034670                       # mshr miss rate for demand accesses
system.cpu0.dcache.demand_mshr_miss_rate::total     0.034670                       # mshr miss rate for demand accesses
system.cpu0.dcache.overall_mshr_miss_rate::cpu0.data     0.034670                       # mshr miss rate for overall accesses
system.cpu0.dcache.overall_mshr_miss_rate::total     0.034670                       # mshr miss rate for overall accesses
system.cpu0.dcache.ReadReq_avg_mshr_miss_latency::cpu0.data 67325.960531                       # average ReadReq mshr miss latency
system.cpu0.dcache.ReadReq_avg_mshr_miss_latency::total 67325.960531                       # average ReadReq mshr miss latency
system.cpu0.dcache.WriteReq_avg_mshr_miss_latency::cpu0.data 55339.939136                       # average WriteReq mshr miss latency
system.cpu0.dcache.WriteReq_avg_mshr_miss_latency::total 55339.939136                       # average WriteReq mshr miss latency
system.cpu0.dcache.demand_avg_mshr_miss_latency::cpu0.data 63691.720781                       # average overall mshr miss latency
system.cpu0.dcache.demand_avg_mshr_miss_latency::total 63691.720781                       # average overall mshr miss latency
system.cpu0.dcache.overall_avg_mshr_miss_latency::cpu0.data 63691.720781                       # average overall mshr miss latency
system.cpu0.dcache.overall_avg_mshr_miss_latency::total 63691.720781                       # average overall mshr miss latency
system.cpu0.dtb_walker_cache.tags.pwrStateResidencyTicks::UNDEFINED  45209574504                       # Cumulative time (in ticks) in various power states
system.cpu0.dtb_walker_cache.tags.replacements            0                       # number of replacements
system.cpu0.dtb_walker_cache.tags.tagsinuse            0                       # Cycle average of tags in use
system.cpu0.dtb_walker_cache.tags.total_refs            0                       # Total number of references to valid blocks.
system.cpu0.dtb_walker_cache.tags.sampled_refs            0                       # Sample count of references to valid blocks.
system.cpu0.dtb_walker_cache.tags.avg_refs          nan                       # Average number of references to valid blocks.
system.cpu0.dtb_walker_cache.tags.warmup_cycle            0                       # Cycle when the warmup percentage was hit.
system.cpu0.dtb_walker_cache.tags.tag_accesses            0                       # Number of tag accesses
system.cpu0.dtb_walker_cache.tags.data_accesses            0                       # Number of data accesses
system.cpu0.dtb_walker_cache.pwrStateResidencyTicks::UNDEFINED  45209574504                       # Cumulative time (in ticks) in various power states
system.cpu0.dtb_walker_cache.blocked_cycles::no_mshrs            0                       # number of cycles access was blocked
system.cpu0.dtb_walker_cache.blocked_cycles::no_targets            0                       # number of cycles access was blocked
system.cpu0.dtb_walker_cache.blocked::no_mshrs            0                       # number of cycles access was blocked
system.cpu0.dtb_walker_cache.blocked::no_targets            0                       # number of cycles access was blocked
system.cpu0.dtb_walker_cache.avg_blocked_cycles::no_mshrs          nan                       # average number of cycles each access was blocked
system.cpu0.dtb_walker_cache.avg_blocked_cycles::no_targets          nan                       # average number of cycles each access was blocked
system.cpu0.icache.tags.pwrStateResidencyTicks::UNDEFINED  45209574504                       # Cumulative time (in ticks) in various power states
system.cpu0.icache.tags.replacements             2537                       # number of replacements
system.cpu0.icache.tags.tagsinuse          511.818292                       # Cycle average of tags in use
system.cpu0.icache.tags.total_refs           11805824                       # Total number of references to valid blocks.
system.cpu0.icache.tags.sampled_refs             3049                       # Sample count of references to valid blocks.
system.cpu0.icache.tags.avg_refs          3872.031486                       # Average number of references to valid blocks.
system.cpu0.icache.tags.warmup_cycle            76257                       # Cycle when the warmup percentage was hit.
system.cpu0.icache.tags.occ_blocks::cpu0.inst   511.818292                       # Average occupied blocks per requestor
system.cpu0.icache.tags.occ_percent::cpu0.inst     0.999645                       # Average percentage of cache occupancy
system.cpu0.icache.tags.occ_percent::total     0.999645                       # Average percentage of cache occupancy
system.cpu0.icache.tags.occ_task_id_blocks::1024          512                       # Occupied blocks per task id
system.cpu0.icache.tags.age_task_id_blocks_1024::3           34                       # Occupied blocks per task id
system.cpu0.icache.tags.age_task_id_blocks_1024::4          478                       # Occupied blocks per task id
system.cpu0.icache.tags.occ_task_id_percent::1024            1                       # Percentage of cache occupancy per task id
system.cpu0.icache.tags.tag_accesses         94479361                       # Number of tag accesses
system.cpu0.icache.tags.data_accesses        94479361                       # Number of data accesses
system.cpu0.icache.pwrStateResidencyTicks::UNDEFINED  45209574504                       # Cumulative time (in ticks) in various power states
system.cpu0.icache.ReadReq_hits::cpu0.inst     11805824                       # number of ReadReq hits
system.cpu0.icache.ReadReq_hits::total       11805824                       # number of ReadReq hits
system.cpu0.icache.demand_hits::cpu0.inst     11805824                       # number of demand (read+write) hits
system.cpu0.icache.demand_hits::total        11805824                       # number of demand (read+write) hits
system.cpu0.icache.overall_hits::cpu0.inst     11805824                       # number of overall hits
system.cpu0.icache.overall_hits::total       11805824                       # number of overall hits
system.cpu0.icache.ReadReq_misses::cpu0.inst         3715                       # number of ReadReq misses
system.cpu0.icache.ReadReq_misses::total         3715                       # number of ReadReq misses
system.cpu0.icache.demand_misses::cpu0.inst         3715                       # number of demand (read+write) misses
system.cpu0.icache.demand_misses::total          3715                       # number of demand (read+write) misses
system.cpu0.icache.overall_misses::cpu0.inst         3715                       # number of overall misses
system.cpu0.icache.overall_misses::total         3715                       # number of overall misses
system.cpu0.icache.ReadReq_miss_latency::cpu0.inst    187087389                       # number of ReadReq miss cycles
system.cpu0.icache.ReadReq_miss_latency::total    187087389                       # number of ReadReq miss cycles
system.cpu0.icache.demand_miss_latency::cpu0.inst    187087389                       # number of demand (read+write) miss cycles
system.cpu0.icache.demand_miss_latency::total    187087389                       # number of demand (read+write) miss cycles
system.cpu0.icache.overall_miss_latency::cpu0.inst    187087389                       # number of overall miss cycles
system.cpu0.icache.overall_miss_latency::total    187087389                       # number of overall miss cycles
system.cpu0.icache.ReadReq_accesses::cpu0.inst     11809539                       # number of ReadReq accesses(hits+misses)
system.cpu0.icache.ReadReq_accesses::total     11809539                       # number of ReadReq accesses(hits+misses)
system.cpu0.icache.demand_accesses::cpu0.inst     11809539                       # number of demand (read+write) accesses
system.cpu0.icache.demand_accesses::total     11809539                       # number of demand (read+write) accesses
system.cpu0.icache.overall_accesses::cpu0.inst     11809539                       # number of overall (read+write) accesses
system.cpu0.icache.overall_accesses::total     11809539                       # number of overall (read+write) accesses
system.cpu0.icache.ReadReq_miss_rate::cpu0.inst     0.000315                       # miss rate for ReadReq accesses
system.cpu0.icache.ReadReq_miss_rate::total     0.000315                       # miss rate for ReadReq accesses
system.cpu0.icache.demand_miss_rate::cpu0.inst     0.000315                       # miss rate for demand accesses
system.cpu0.icache.demand_miss_rate::total     0.000315                       # miss rate for demand accesses
system.cpu0.icache.overall_miss_rate::cpu0.inst     0.000315                       # miss rate for overall accesses
system.cpu0.icache.overall_miss_rate::total     0.000315                       # miss rate for overall accesses
system.cpu0.icache.ReadReq_avg_miss_latency::cpu0.inst 50359.997039                       # average ReadReq miss latency
system.cpu0.icache.ReadReq_avg_miss_latency::total 50359.997039                       # average ReadReq miss latency
system.cpu0.icache.demand_avg_miss_latency::cpu0.inst 50359.997039                       # average overall miss latency
system.cpu0.icache.demand_avg_miss_latency::total 50359.997039                       # average overall miss latency
system.cpu0.icache.overall_avg_miss_latency::cpu0.inst 50359.997039                       # average overall miss latency
system.cpu0.icache.overall_avg_miss_latency::total 50359.997039                       # average overall miss latency
system.cpu0.icache.blocked_cycles::no_mshrs         3298                       # number of cycles access was blocked
system.cpu0.icache.blocked_cycles::no_targets            0                       # number of cycles access was blocked
system.cpu0.icache.blocked::no_mshrs               39                       # number of cycles access was blocked
system.cpu0.icache.blocked::no_targets              0                       # number of cycles access was blocked
system.cpu0.icache.avg_blocked_cycles::no_mshrs    84.564103                       # average number of cycles each access was blocked
system.cpu0.icache.avg_blocked_cycles::no_targets          nan                       # average number of cycles each access was blocked
system.cpu0.icache.writebacks::writebacks         2537                       # number of writebacks
system.cpu0.icache.writebacks::total             2537                       # number of writebacks
system.cpu0.icache.ReadReq_mshr_hits::cpu0.inst          666                       # number of ReadReq MSHR hits
system.cpu0.icache.ReadReq_mshr_hits::total          666                       # number of ReadReq MSHR hits
system.cpu0.icache.demand_mshr_hits::cpu0.inst          666                       # number of demand (read+write) MSHR hits
system.cpu0.icache.demand_mshr_hits::total          666                       # number of demand (read+write) MSHR hits
system.cpu0.icache.overall_mshr_hits::cpu0.inst          666                       # number of overall MSHR hits
system.cpu0.icache.overall_mshr_hits::total          666                       # number of overall MSHR hits
system.cpu0.icache.ReadReq_mshr_misses::cpu0.inst         3049                       # number of ReadReq MSHR misses
system.cpu0.icache.ReadReq_mshr_misses::total         3049                       # number of ReadReq MSHR misses
system.cpu0.icache.demand_mshr_misses::cpu0.inst         3049                       # number of demand (read+write) MSHR misses
system.cpu0.icache.demand_mshr_misses::total         3049                       # number of demand (read+write) MSHR misses
system.cpu0.icache.overall_mshr_misses::cpu0.inst         3049                       # number of overall MSHR misses
system.cpu0.icache.overall_mshr_misses::total         3049                       # number of overall MSHR misses
system.cpu0.icache.ReadReq_mshr_miss_latency::cpu0.inst    149982532                       # number of ReadReq MSHR miss cycles
system.cpu0.icache.ReadReq_mshr_miss_latency::total    149982532                       # number of ReadReq MSHR miss cycles
system.cpu0.icache.demand_mshr_miss_latency::cpu0.inst    149982532                       # number of demand (read+write) MSHR miss cycles
system.cpu0.icache.demand_mshr_miss_latency::total    149982532                       # number of demand (read+write) MSHR miss cycles
system.cpu0.icache.overall_mshr_miss_latency::cpu0.inst    149982532                       # number of overall MSHR miss cycles
system.cpu0.icache.overall_mshr_miss_latency::total    149982532                       # number of overall MSHR miss cycles
system.cpu0.icache.ReadReq_mshr_miss_rate::cpu0.inst     0.000258                       # mshr miss rate for ReadReq accesses
system.cpu0.icache.ReadReq_mshr_miss_rate::total     0.000258                       # mshr miss rate for ReadReq accesses
system.cpu0.icache.demand_mshr_miss_rate::cpu0.inst     0.000258                       # mshr miss rate for demand accesses
system.cpu0.icache.demand_mshr_miss_rate::total     0.000258                       # mshr miss rate for demand accesses
system.cpu0.icache.overall_mshr_miss_rate::cpu0.inst     0.000258                       # mshr miss rate for overall accesses
system.cpu0.icache.overall_mshr_miss_rate::total     0.000258                       # mshr miss rate for overall accesses
system.cpu0.icache.ReadReq_avg_mshr_miss_latency::cpu0.inst 49190.728764                       # average ReadReq mshr miss latency
system.cpu0.icache.ReadReq_avg_mshr_miss_latency::total 49190.728764                       # average ReadReq mshr miss latency
system.cpu0.icache.demand_avg_mshr_miss_latency::cpu0.inst 49190.728764                       # average overall mshr miss latency
system.cpu0.icache.demand_avg_mshr_miss_latency::total 49190.728764                       # average overall mshr miss latency
system.cpu0.icache.overall_avg_mshr_miss_latency::cpu0.inst 49190.728764                       # average overall mshr miss latency
system.cpu0.icache.overall_avg_mshr_miss_latency::total 49190.728764                       # average overall mshr miss latency
system.cpu0.itb_walker_cache.tags.pwrStateResidencyTicks::UNDEFINED  45209574504                       # Cumulative time (in ticks) in various power states
system.cpu0.itb_walker_cache.tags.replacements            0                       # number of replacements
system.cpu0.itb_walker_cache.tags.tagsinuse            0                       # Cycle average of tags in use
system.cpu0.itb_walker_cache.tags.total_refs            0                       # Total number of references to valid blocks.
system.cpu0.itb_walker_cache.tags.sampled_refs            0                       # Sample count of references to valid blocks.
system.cpu0.itb_walker_cache.tags.avg_refs          nan                       # Average number of references to valid blocks.
system.cpu0.itb_walker_cache.tags.warmup_cycle            0                       # Cycle when the warmup percentage was hit.
system.cpu0.itb_walker_cache.tags.tag_accesses            0                       # Number of tag accesses
system.cpu0.itb_walker_cache.tags.data_accesses            0                       # Number of data accesses
system.cpu0.itb_walker_cache.pwrStateResidencyTicks::UNDEFINED  45209574504                       # Cumulative time (in ticks) in various power states
system.cpu0.itb_walker_cache.blocked_cycles::no_mshrs            0                       # number of cycles access was blocked
system.cpu0.itb_walker_cache.blocked_cycles::no_targets            0                       # number of cycles access was blocked
system.cpu0.itb_walker_cache.blocked::no_mshrs            0                       # number of cycles access was blocked
system.cpu0.itb_walker_cache.blocked::no_targets            0                       # number of cycles access was blocked
system.cpu0.itb_walker_cache.avg_blocked_cycles::no_mshrs          nan                       # average number of cycles each access was blocked
system.cpu0.itb_walker_cache.avg_blocked_cycles::no_targets          nan                       # average number of cycles each access was blocked
system.cpu0.l2cache.tags.pwrStateResidencyTicks::UNDEFINED  45209574504                       # Cumulative time (in ticks) in various power states
system.cpu0.l2cache.tags.replacements          955157                       # number of replacements
system.cpu0.l2cache.tags.tagsinuse        4084.478027                       # Cycle average of tags in use
system.cpu0.l2cache.tags.total_refs           1149756                       # Total number of references to valid blocks.
system.cpu0.l2cache.tags.sampled_refs          959253                       # Sample count of references to valid blocks.
system.cpu0.l2cache.tags.avg_refs            1.198595                       # Average number of references to valid blocks.
system.cpu0.l2cache.tags.warmup_cycle           73000                       # Cycle when the warmup percentage was hit.
system.cpu0.l2cache.tags.occ_blocks::writebacks    66.403735                       # Average occupied blocks per requestor
system.cpu0.l2cache.tags.occ_blocks::cpu0.inst    85.599307                       # Average occupied blocks per requestor
system.cpu0.l2cache.tags.occ_blocks::cpu0.data  3932.474984                       # Average occupied blocks per requestor
system.cpu0.l2cache.tags.occ_percent::writebacks     0.016212                       # Average percentage of cache occupancy
system.cpu0.l2cache.tags.occ_percent::cpu0.inst     0.020898                       # Average percentage of cache occupancy
system.cpu0.l2cache.tags.occ_percent::cpu0.data     0.960077                       # Average percentage of cache occupancy
system.cpu0.l2cache.tags.occ_percent::total     0.997187                       # Average percentage of cache occupancy
system.cpu0.l2cache.tags.occ_task_id_blocks::1024         4096                       # Occupied blocks per task id
system.cpu0.l2cache.tags.age_task_id_blocks_1024::0          258                       # Occupied blocks per task id
system.cpu0.l2cache.tags.age_task_id_blocks_1024::1         2361                       # Occupied blocks per task id
system.cpu0.l2cache.tags.age_task_id_blocks_1024::2         1477                       # Occupied blocks per task id
system.cpu0.l2cache.tags.occ_task_id_percent::1024            1                       # Percentage of cache occupancy per task id
system.cpu0.l2cache.tags.tag_accesses         9396109                       # Number of tag accesses
system.cpu0.l2cache.tags.data_accesses        9396109                       # Number of data accesses
system.cpu0.l2cache.pwrStateResidencyTicks::UNDEFINED  45209574504                       # Cumulative time (in ticks) in various power states
system.cpu0.l2cache.WritebackDirty_hits::writebacks       446623                       # number of WritebackDirty hits
system.cpu0.l2cache.WritebackDirty_hits::total       446623                       # number of WritebackDirty hits
system.cpu0.l2cache.WritebackClean_hits::writebacks         2533                       # number of WritebackClean hits
system.cpu0.l2cache.WritebackClean_hits::total         2533                       # number of WritebackClean hits
system.cpu0.l2cache.UpgradeReq_hits::cpu0.data        51336                       # number of UpgradeReq hits
system.cpu0.l2cache.UpgradeReq_hits::total        51336                       # number of UpgradeReq hits
system.cpu0.l2cache.ReadExReq_hits::cpu0.data        21630                       # number of ReadExReq hits
system.cpu0.l2cache.ReadExReq_hits::total        21630                       # number of ReadExReq hits
system.cpu0.l2cache.ReadCleanReq_hits::cpu0.inst          951                       # number of ReadCleanReq hits
system.cpu0.l2cache.ReadCleanReq_hits::total          951                       # number of ReadCleanReq hits
system.cpu0.l2cache.ReadSharedReq_hits::cpu0.data        48901                       # number of ReadSharedReq hits
system.cpu0.l2cache.ReadSharedReq_hits::total        48901                       # number of ReadSharedReq hits
system.cpu0.l2cache.demand_hits::cpu0.inst          951                       # number of demand (read+write) hits
system.cpu0.l2cache.demand_hits::cpu0.data        70531                       # number of demand (read+write) hits
system.cpu0.l2cache.demand_hits::total          71482                       # number of demand (read+write) hits
[...]
system.l3.demand_mshr_miss_latency::cpu3.inst    111198050                       # number of demand (read+write) MSHR miss cycles
system.l3.demand_mshr_miss_latency::cpu3.data  53029750569                       # number of demand (read+write) MSHR miss cycles
system.l3.demand_mshr_miss_latency::total 210927503349                       # number of demand (read+write) MSHR miss cycles
system.l3.overall_mshr_miss_latency::cpu0.inst    113199898                       # number of overall MSHR miss cycles
system.l3.overall_mshr_miss_latency::cpu0.data  52803771720                       # number of overall MSHR miss cycles
system.l3.overall_mshr_miss_latency::cpu1.inst    111650256                       # number of overall MSHR miss cycles
system.l3.overall_mshr_miss_latency::cpu1.data  52326524390                       # number of overall MSHR miss cycles
system.l3.overall_mshr_miss_latency::cpu2.inst    114044116                       # number of overall MSHR miss cycles
system.l3.overall_mshr_miss_latency::cpu2.data  52317364350                       # number of overall MSHR miss cycles
system.l3.overall_mshr_miss_latency::cpu3.inst    111198050                       # number of overall MSHR miss cycles
system.l3.overall_mshr_miss_latency::cpu3.data  53029750569                       # number of overall MSHR miss cycles
system.l3.overall_mshr_miss_latency::total 210927503349                       # number of overall MSHR miss cycles
system.l3.CleanEvict_mshr_miss_rate::writebacks          inf                       # mshr miss rate for CleanEvict accesses
system.l3.CleanEvict_mshr_miss_rate::total          inf                       # mshr miss rate for CleanEvict accesses
system.l3.ReadExReq_mshr_miss_rate::cpu0.data     0.729320                       # mshr miss rate for ReadExReq accesses
system.l3.ReadExReq_mshr_miss_rate::cpu1.data     0.737569                       # mshr miss rate for ReadExReq accesses
system.l3.ReadExReq_mshr_miss_rate::cpu2.data     0.753867                       # mshr miss rate for ReadExReq accesses
system.l3.ReadExReq_mshr_miss_rate::cpu3.data     0.740473                       # mshr miss rate for ReadExReq accesses
system.l3.ReadExReq_mshr_miss_rate::total     0.740244                       # mshr miss rate for ReadExReq accesses
system.l3.ReadSharedReq_mshr_miss_rate::cpu0.inst     0.912774                       # mshr miss rate for ReadSharedReq accesses
system.l3.ReadSharedReq_mshr_miss_rate::cpu0.data     0.792382                       # mshr miss rate for ReadSharedReq accesses
system.l3.ReadSharedReq_mshr_miss_rate::cpu1.inst     0.908571                       # mshr miss rate for ReadSharedReq accesses
system.l3.ReadSharedReq_mshr_miss_rate::cpu1.data     0.787764                       # mshr miss rate for ReadSharedReq accesses
system.l3.ReadSharedReq_mshr_miss_rate::cpu2.inst     0.915270                       # mshr miss rate for ReadSharedReq accesses
system.l3.ReadSharedReq_mshr_miss_rate::cpu2.data     0.787710                       # mshr miss rate for ReadSharedReq accesses
system.l3.ReadSharedReq_mshr_miss_rate::cpu3.inst     0.913917                       # mshr miss rate for ReadSharedReq accesses
system.l3.ReadSharedReq_mshr_miss_rate::cpu3.data     0.799993                       # mshr miss rate for ReadSharedReq accesses
system.l3.ReadSharedReq_mshr_miss_rate::total     0.792317                       # mshr miss rate for ReadSharedReq accesses
system.l3.demand_mshr_miss_rate::cpu0.inst     0.912774                       # mshr miss rate for demand accesses
system.l3.demand_mshr_miss_rate::cpu0.data     0.775637                       # mshr miss rate for demand accesses
system.l3.demand_mshr_miss_rate::cpu1.inst     0.908571                       # mshr miss rate for demand accesses
system.l3.demand_mshr_miss_rate::cpu1.data     0.774484                       # mshr miss rate for demand accesses
system.l3.demand_mshr_miss_rate::cpu2.inst     0.915270                       # mshr miss rate for demand accesses
system.l3.demand_mshr_miss_rate::cpu2.data     0.778847                       # mshr miss rate for demand accesses
system.l3.demand_mshr_miss_rate::cpu3.inst     0.913917                       # mshr miss rate for demand accesses
system.l3.demand_mshr_miss_rate::cpu3.data     0.784252                       # mshr miss rate for demand accesses
system.l3.demand_mshr_miss_rate::total       0.778594                       # mshr miss rate for demand accesses
system.l3.overall_mshr_miss_rate::cpu0.inst     0.912774                       # mshr miss rate for overall accesses
system.l3.overall_mshr_miss_rate::cpu0.data     0.775637                       # mshr miss rate for overall accesses
system.l3.overall_mshr_miss_rate::cpu1.inst     0.908571                       # mshr miss rate for overall accesses
system.l3.overall_mshr_miss_rate::cpu1.data     0.774484                       # mshr miss rate for overall accesses
system.l3.overall_mshr_miss_rate::cpu2.inst     0.915270                       # mshr miss rate for overall accesses
system.l3.overall_mshr_miss_rate::cpu2.data     0.778847                       # mshr miss rate for overall accesses
system.l3.overall_mshr_miss_rate::cpu3.inst     0.913917                       # mshr miss rate for overall accesses
system.l3.overall_mshr_miss_rate::cpu3.data     0.784252                       # mshr miss rate for overall accesses
system.l3.overall_mshr_miss_rate::total      0.778594                       # mshr miss rate for overall accesses
system.l3.ReadExReq_avg_mshr_miss_latency::cpu0.data 74453.274959                       # average ReadExReq mshr miss latency
system.l3.ReadExReq_avg_mshr_miss_latency::cpu1.data 75692.392345                       # average ReadExReq mshr miss latency
system.l3.ReadExReq_avg_mshr_miss_latency::cpu2.data 75426.378779                       # average ReadExReq mshr miss latency
system.l3.ReadExReq_avg_mshr_miss_latency::cpu3.data 76163.216935                       # average ReadExReq mshr miss latency
system.l3.ReadExReq_avg_mshr_miss_latency::total 75434.065713                       # average ReadExReq mshr miss latency
system.l3.ReadSharedReq_avg_mshr_miss_latency::cpu0.inst 59112.218277                       # average ReadSharedReq mshr miss latency
system.l3.ReadSharedReq_avg_mshr_miss_latency::cpu0.data 70144.600225                       # average ReadSharedReq mshr miss latency
system.l3.ReadSharedReq_avg_mshr_miss_latency::cpu1.inst 58516.905660                       # average ReadSharedReq mshr miss latency
system.l3.ReadSharedReq_avg_mshr_miss_latency::cpu1.data 69802.768080                       # average ReadSharedReq mshr miss latency
system.l3.ReadSharedReq_avg_mshr_miss_latency::cpu2.inst 59646.504184                       # average ReadSharedReq mshr miss latency
system.l3.ReadSharedReq_avg_mshr_miss_latency::cpu2.data 69191.749677                       # average ReadSharedReq mshr miss latency
system.l3.ReadSharedReq_avg_mshr_miss_latency::cpu3.inst 58188.409210                       # average ReadSharedReq mshr miss latency
system.l3.ReadSharedReq_avg_mshr_miss_latency::cpu3.data 69817.728819                       # average ReadSharedReq mshr miss latency
system.l3.ReadSharedReq_avg_mshr_miss_latency::total 69702.725538                       # average ReadSharedReq mshr miss latency
system.l3.demand_avg_mshr_miss_latency::cpu0.inst 59112.218277                       # average overall mshr miss latency
system.l3.demand_avg_mshr_miss_latency::cpu0.data 71220.359637                       # average overall mshr miss latency
system.l3.demand_avg_mshr_miss_latency::cpu1.inst 58516.905660                       # average overall mshr miss latency
system.l3.demand_avg_mshr_miss_latency::cpu1.data 71286.726260                       # average overall mshr miss latency
system.l3.demand_avg_mshr_miss_latency::cpu2.inst 59646.504184                       # average overall mshr miss latency
system.l3.demand_avg_mshr_miss_latency::cpu2.data 70772.208537                       # average overall mshr miss latency
system.l3.demand_avg_mshr_miss_latency::cpu3.inst 58188.409210                       # average overall mshr miss latency
system.l3.demand_avg_mshr_miss_latency::cpu3.data 71402.172059                       # average overall mshr miss latency
system.l3.demand_avg_mshr_miss_latency::total 71138.740347                       # average overall mshr miss latency
system.l3.overall_avg_mshr_miss_latency::cpu0.inst 59112.218277                       # average overall mshr miss latency
system.l3.overall_avg_mshr_miss_latency::cpu0.data 71220.359637                       # average overall mshr miss latency
system.l3.overall_avg_mshr_miss_latency::cpu1.inst 58516.905660                       # average overall mshr miss latency
system.l3.overall_avg_mshr_miss_latency::cpu1.data 71286.726260                       # average overall mshr miss latency
system.l3.overall_avg_mshr_miss_latency::cpu2.inst 59646.504184                       # average overall mshr miss latency
system.l3.overall_avg_mshr_miss_latency::cpu2.data 70772.208537                       # average overall mshr miss latency
system.l3.overall_avg_mshr_miss_latency::cpu3.inst 58188.409210                       # average overall mshr miss latency
system.l3.overall_avg_mshr_miss_latency::cpu3.data 71402.172059                       # average overall mshr miss latency
system.l3.overall_avg_mshr_miss_latency::total 71138.740347                       # average overall mshr miss latency
system.membus.snoop_filter.tot_requests       5797197                       # Total number of requests made to the snoop filter.
system.membus.snoop_filter.hit_single_requests      2832184                       # Number of requests hitting in the snoop filter with a single holder of the requested data.
system.membus.snoop_filter.hit_multi_requests            0                       # Number of requests hitting in the snoop filter with multiple (>1) holders of the requested data.
system.membus.snoop_filter.tot_snoops               0                       # Total number of snoops made to the snoop filter.
system.membus.snoop_filter.hit_single_snoops            0                       # Number of snoops hitting in the snoop filter with a single holder of the requested data.
system.membus.snoop_filter.hit_multi_snoops            0                       # Number of snoops hitting in the snoop filter with multiple (>1) holders of the requested data.
system.membus.pwrStateResidencyTicks::UNDEFINED  45209574504                       # Cumulative time (in ticks) in various power states
system.membus.trans_dist::ReadResp            2222112                       # Transaction distribution
system.membus.trans_dist::WritebackDirty       986598                       # Transaction distribution
system.membus.trans_dist::CleanEvict          1845584                       # Transaction distribution
system.membus.trans_dist::ReadExReq            742899                       # Transaction distribution
system.membus.trans_dist::ReadExResp           742899                       # Transaction distribution
system.membus.trans_dist::ReadSharedReq       2222116                       # Transaction distribution
system.membus.pkt_count_system.l3.mem_side::system.mem_ctrls.port      8762208                       # Packet count per connected master and slave (bytes)
system.membus.pkt_count_system.l3.mem_side::total      8762208                       # Packet count per connected master and slave (bytes)
system.membus.pkt_count::total                8762208                       # Packet count per connected master and slave (bytes)
system.membus.pkt_size_system.l3.mem_side::system.mem_ctrls.port    252902976                       # Cumulative packet size per connected master and slave (bytes)
system.membus.pkt_size_system.l3.mem_side::total    252902976                       # Cumulative packet size per connected master and slave (bytes)
system.membus.pkt_size::total               252902976                       # Cumulative packet size per connected master and slave (bytes)
system.membus.snoops                                0                       # Total snoops (count)
system.membus.snoopTraffic                          0                       # Total snoop traffic (bytes)
system.membus.snoop_fanout::samples           2965015                       # Request fanout histogram
system.membus.snoop_fanout::mean                    0                       # Request fanout histogram
system.membus.snoop_fanout::stdev                   0                       # Request fanout histogram
system.membus.snoop_fanout::underflows              0      0.00%      0.00% # Request fanout histogram
system.membus.snoop_fanout::0                 2965015    100.00%    100.00% # Request fanout histogram
system.membus.snoop_fanout::1                       0      0.00%    100.00% # Request fanout histogram
system.membus.snoop_fanout::overflows               0      0.00%    100.00% # Request fanout histogram
system.membus.snoop_fanout::min_value               0                       # Request fanout histogram
system.membus.snoop_fanout::max_value               0                       # Request fanout histogram
system.membus.snoop_fanout::total             2965015                       # Request fanout histogram
system.membus.reqLayer8.occupancy         10620689562                       # Layer occupancy (ticks)
system.membus.reqLayer8.utilization              23.5                       # Layer utilization (%)
system.membus.respLayer1.occupancy        15411514731                       # Layer occupancy (ticks)
system.membus.respLayer1.utilization             34.1                       # Layer utilization (%)
system.tol3bus.snoop_filter.tot_requests      7598043                       # Total number of requests made to the snoop filter.
system.tol3bus.snoop_filter.hit_single_requests      3789884                       # Number of requests hitting in the snoop filter with a single holder of the requested data.
system.tol3bus.snoop_filter.hit_multi_requests            0                       # Number of requests hitting in the snoop filter with multiple (>1) holders of the requested data.
system.tol3bus.snoop_filter.tot_snoops           3684                       # Total number of snoops made to the snoop filter.
system.tol3bus.snoop_filter.hit_single_snoops         3684                       # Number of snoops hitting in the snoop filter with a single holder of the requested data.
system.tol3bus.snoop_filter.hit_multi_snoops            0                       # Number of snoops hitting in the snoop filter with multiple (>1) holders of the requested data.
system.tol3bus.pwrStateResidencyTicks::UNDEFINED  45209574504                       # Cumulative time (in ticks) in various power states
system.tol3bus.trans_dist::ReadResp           2804575                       # Transaction distribution
system.tol3bus.trans_dist::WritebackDirty      2674219                       # Transaction distribution
system.tol3bus.trans_dist::CleanEvict         3949763                       # Transaction distribution
system.tol3bus.trans_dist::UpgradeReq               8                       # Transaction distribution
system.tol3bus.trans_dist::UpgradeResp              8                       # Transaction distribution
system.tol3bus.trans_dist::ReadExReq          1003586                       # Transaction distribution
system.tol3bus.trans_dist::ReadExResp         1003586                       # Transaction distribution
system.tol3bus.trans_dist::ReadSharedReq      2804581                       # Transaction distribution
system.tol3bus.pkt_count_system.cpu0.l2cache.mem_side::system.l3.cpu_side      2869351                       # Packet count per connected master and slave (bytes)
system.tol3bus.pkt_count_system.cpu1.l2cache.mem_side::system.l3.cpu_side      2845020                       # Packet count per connected master and slave (bytes)
system.tol3bus.pkt_count_system.cpu2.l2cache.mem_side::system.l3.cpu_side      2849132                       # Packet count per connected master and slave (bytes)
system.tol3bus.pkt_count_system.cpu3.l2cache.mem_side::system.l3.cpu_side      2842709                       # Packet count per connected master and slave (bytes)
system.tol3bus.pkt_count::total              11406212                       # Packet count per connected master and slave (bytes)
system.tol3bus.pkt_size_system.cpu0.l2cache.mem_side::system.l3.cpu_side     88591360                       # Cumulative packet size per connected master and slave (bytes)
system.tol3bus.pkt_size_system.cpu1.l2cache.mem_side::system.l3.cpu_side     87760640                       # Cumulative packet size per connected master and slave (bytes)
system.tol3bus.pkt_size_system.cpu2.l2cache.mem_side::system.l3.cpu_side     87858304                       # Cumulative packet size per connected master and slave (bytes)
system.tol3bus.pkt_size_system.cpu3.l2cache.mem_side::system.l3.cpu_side     87519744                       # Cumulative packet size per connected master and slave (bytes)
system.tol3bus.pkt_size::total              351730048                       # Cumulative packet size per connected master and slave (bytes)
system.tol3bus.snoops                         2834114                       # Total snoops (count)
system.tol3bus.snoopTraffic                  63142272                       # Total snoop traffic (bytes)
system.tol3bus.snoop_fanout::samples          6642289                       # Request fanout histogram
system.tol3bus.snoop_fanout::mean            0.000555                       # Request fanout histogram
system.tol3bus.snoop_fanout::stdev           0.023544                       # Request fanout histogram
system.tol3bus.snoop_fanout::underflows             0      0.00%      0.00% # Request fanout histogram
system.tol3bus.snoop_fanout::0                6638605     99.94%     99.94% # Request fanout histogram
system.tol3bus.snoop_fanout::1                   3684      0.06%    100.00% # Request fanout histogram
system.tol3bus.snoop_fanout::2                      0      0.00%    100.00% # Request fanout histogram
system.tol3bus.snoop_fanout::3                      0      0.00%    100.00% # Request fanout histogram
system.tol3bus.snoop_fanout::4                      0      0.00%    100.00% # Request fanout histogram
system.tol3bus.snoop_fanout::overflows              0      0.00%    100.00% # Request fanout histogram
system.tol3bus.snoop_fanout::min_value              0                       # Request fanout histogram
system.tol3bus.snoop_fanout::max_value              1                       # Request fanout histogram
system.tol3bus.snoop_fanout::total            6642289                       # Request fanout histogram
system.tol3bus.reqLayer0.occupancy        12489571137                       # Layer occupancy (ticks)
system.tol3bus.reqLayer0.utilization             27.6                       # Layer utilization (%)
system.tol3bus.respLayer0.occupancy        3056299223                       # Layer occupancy (ticks)
system.tol3bus.respLayer0.utilization             6.8                       # Layer utilization (%)
system.tol3bus.respLayer1.occupancy        3030219264                       # Layer occupancy (ticks)
system.tol3bus.respLayer1.utilization             6.7                       # Layer utilization (%)
system.tol3bus.respLayer2.occupancy        3033924807                       # Layer occupancy (ticks)
system.tol3bus.respLayer2.utilization             6.7                       # Layer utilization (%)
system.tol3bus.respLayer3.occupancy        3028752443                       # Layer occupancy (ticks)
system.tol3bus.respLayer3.utilization             6.7                       # Layer utilization (%)

---------- End Simulation Statistics   ----------
