
---------- Begin Simulation Statistics ----------
sim_seconds                                  0.048997                       # Number of seconds simulated
sim_ticks                                 48996884736                       # Number of ticks simulated
final_tick                                48996884736                       # Number of ticks from beginning of simulation (restored from checkpoints and never reset)
sim_freq                                 1000000000000                       # Frequency of simulated ticks
host_inst_rate                                  49934                       # Simulator instruction rate (inst/s)
host_op_rate                                    91879                       # Simulator op (including micro ops) rate (op/s)
host_tick_rate                               67843868                       # Simulator tick rate (ticks/s)
host_mem_usage                               33861096                       # Number of bytes of host memory used
host_seconds                                   722.20                       # Real time elapsed on the host
sim_insts                                    36062045                       # Number of instructions simulated
sim_ops                                      66355078                       # Number of ops (including micro ops) simulated
system.voltage_domain.voltage                       1                       # Voltage in Volts
system.clk_domain.clock                          1000                       # Clock period in ticks
system.mem_ctrls.pwrStateResidencyTicks::UNDEFINED  48996884736                       # Cumulative time (in ticks) in various power states
system.mem_ctrls.bytes_read::cpu0.inst          76416                       # Number of bytes read from this memory
system.mem_ctrls.bytes_read::cpu0.data       30426368                       # Number of bytes read from this memory
system.mem_ctrls.bytes_read::cpu1.inst          75968                       # Number of bytes read from this memory
system.mem_ctrls.bytes_read::cpu1.data       30425920                       # Number of bytes read from this memory
system.mem_ctrls.bytes_read::cpu2.inst          75072                       # Number of bytes read from this memory
system.mem_ctrls.bytes_read::cpu2.data       30425856                       # Number of bytes read from this memory
system.mem_ctrls.bytes_read::cpu3.inst          76352                       # Number of bytes read from this memory
system.mem_ctrls.bytes_read::cpu3.data       30426304                       # Number of bytes read from this memory
system.mem_ctrls.bytes_read::total          122008256                       # Number of bytes read from this memory
system.mem_ctrls.bytes_inst_read::cpu0.inst        76416                       # Number of instructions bytes read from this memory
system.mem_ctrls.bytes_inst_read::cpu1.inst        75968                       # Number of instructions bytes read from this memory
system.mem_ctrls.bytes_inst_read::cpu2.inst        75072                       # Number of instructions bytes read from this memory
system.mem_ctrls.bytes_inst_read::cpu3.inst        76352                       # Number of instructions bytes read from this memory
system.mem_ctrls.bytes_inst_read::total        303808                       # Number of instructions bytes read from this memory
system.mem_ctrls.bytes_written::writebacks    113296384                       # Number of bytes written to this memory
system.mem_ctrls.bytes_written::total       113296384                       # Number of bytes written to this memory
system.mem_ctrls.num_reads::cpu0.inst            1194                       # Number of read requests responded to by this memory
system.mem_ctrls.num_reads::cpu0.data          475412                       # Number of read requests responded to by this memory
system.mem_ctrls.num_reads::cpu1.inst            1187                       # Number of read requests responded to by this memory
system.mem_ctrls.num_reads::cpu1.data          475405                       # Number of read requests responded to by this memory
system.mem_ctrls.num_reads::cpu2.inst            1173                       # Number of read requests responded to by this memory
system.mem_ctrls.num_reads::cpu2.data          475404                       # Number of read requests responded to by this memory
system.mem_ctrls.num_reads::cpu3.inst            1193                       # Number of read requests responded to by this memory
system.mem_ctrls.num_reads::cpu3.data          475411                       # Number of read requests responded to by this memory
system.mem_ctrls.num_reads::total             1906379                       # Number of read requests responded to by this memory
system.mem_ctrls.num_writes::writebacks       1770256                       # Number of write requests responded to by this memory
system.mem_ctrls.num_writes::total            1770256                       # Number of write requests responded to by this memory
system.mem_ctrls.bw_read::cpu0.inst           1559609                       # Total read bandwidth from this memory (bytes/s)
system.mem_ctrls.bw_read::cpu0.data         620985766                       # Total read bandwidth from this memory (bytes/s)
system.mem_ctrls.bw_read::cpu1.inst           1550466                       # Total read bandwidth from this memory (bytes/s)
system.mem_ctrls.bw_read::cpu1.data         620976623                       # Total read bandwidth from this memory (bytes/s)
system.mem_ctrls.bw_read::cpu2.inst           1532179                       # Total read bandwidth from this memory (bytes/s)
system.mem_ctrls.bw_read::cpu2.data         620975316                       # Total read bandwidth from this memory (bytes/s)
system.mem_ctrls.bw_read::cpu3.inst           1558303                       # Total read bandwidth from this memory (bytes/s)
system.mem_ctrls.bw_read::cpu3.data         620984460                       # Total read bandwidth from this memory (bytes/s)
system.mem_ctrls.bw_read::total            2490122722                       # Total read bandwidth from this memory (bytes/s)
system.mem_ctrls.bw_inst_read::cpu0.inst      1559609                       # Instruction read bandwidth from this memory (bytes/s)
system.mem_ctrls.bw_inst_read::cpu1.inst      1550466                       # Instruction read bandwidth from this memory (bytes/s)
system.mem_ctrls.bw_inst_read::cpu2.inst      1532179                       # Instruction read bandwidth from this memory (bytes/s)
system.mem_ctrls.bw_inst_read::cpu3.inst      1558303                       # Instruction read bandwidth from this memory (bytes/s)
system.mem_ctrls.bw_inst_read::total          6200557                       # Instruction read bandwidth from this memory (bytes/s)
system.mem_ctrls.bw_write::writebacks      2312318112                       # Write bandwidth from this memory (bytes/s)
system.mem_ctrls.bw_write::total           2312318112                       # Write bandwidth from this memory (bytes/s)
system.mem_ctrls.bw_total::writebacks      2312318112                       # Total bandwidth to/from this memory (bytes/s)
system.mem_ctrls.bw_total::cpu0.inst          1559609                       # Total bandwidth to/from this memory (bytes/s)
system.mem_ctrls.bw_total::cpu0.data        620985766                       # Total bandwidth to/from this memory (bytes/s)
system.mem_ctrls.bw_total::cpu1.inst          1550466                       # Total bandwidth to/from this memory (bytes/s)
system.mem_ctrls.bw_total::cpu1.data        620976623                       # Total bandwidth to/from this memory (bytes/s)
system.mem_ctrls.bw_total::cpu2.inst          1532179                       # Total bandwidth to/from this memory (bytes/s)
system.mem_ctrls.bw_total::cpu2.data        620975316                       # Total bandwidth to/from this memory (bytes/s)
system.mem_ctrls.bw_total::cpu3.inst          1558303                       # Total bandwidth to/from this memory (bytes/s)
system.mem_ctrls.bw_total::cpu3.data        620984460                       # Total bandwidth to/from this memory (bytes/s)
system.mem_ctrls.bw_total::total           4802440834                       # Total bandwidth to/from this memory (bytes/s)
system.pwrStateResidencyTicks::UNDEFINED  48996884736                       # Cumulative time (in ticks) in various power states
system.cpu0.branchPred.lookups                 857212                       # Number of BP lookups
system.cpu0.branchPred.condPredicted           857212                       # Number of conditional branches predicted
system.cpu0.branchPred.condIncorrect             7781                       # Number of conditional branches incorrect
system.cpu0.branchPred.BTBLookups              756950                       # Number of BTB lookups
system.cpu0.branchPred.BTBHits                      0                       # Number of BTB hits
system.cpu0.branchPred.BTBCorrect                   0                       # Number of correct BTB predictions (this stat may not work properly.
system.cpu0.branchPred.BTBHitPct             0.000000                       # BTB Hit Percentage
system.cpu0.branchPred.usedRAS                  22428                       # Number of times the RAS was used to get a target.
system.cpu0.branchPred.RASInCorrect              1038                       # Number of incorrect RAS predictions.
system.cpu0.branchPred.indirectLookups         756950                       # Number of indirect predictor lookups.
system.cpu0.branchPred.indirectHits            535636                       # Number of indirect target hits.
system.cpu0.branchPred.indirectMisses          221314                       # Number of indirect misses.
system.cpu0.branchPredindirectMispredicted         4463                       # Number of mispredicted indirect branches.
system.cpu_voltage_domain.voltage                   1                       # Voltage in Volts
system.cpu_clk_domain.clock                       333                       # Clock period in ticks
system.cpu0.dtb.walker.pwrStateResidencyTicks::UNDEFINED  48996884736                       # Cumulative time (in ticks) in various power states
system.cpu0.dtb.rdAccesses                    1539151                       # TLB accesses on read requests
system.cpu0.dtb.wrAccesses                    4176593                       # TLB accesses on write requests
system.cpu0.dtb.rdMisses                          735                       # TLB misses on read requests
system.cpu0.dtb.wrMisses                         7651                       # TLB misses on write requests
system.cpu0.apic_clk_domain.clock                5328                       # Clock period in ticks
system.cpu0.interrupts.pwrStateResidencyTicks::UNDEFINED  48996884736                       # Cumulative time (in ticks) in various power states
system.cpu0.itb.walker.pwrStateResidencyTicks::UNDEFINED  48996884736                       # Cumulative time (in ticks) in various power states
system.cpu0.itb.rdAccesses                          0                       # TLB accesses on read requests
system.cpu0.itb.wrAccesses                    1364423                       # TLB accesses on write requests
system.cpu0.itb.rdMisses                            0                       # TLB misses on read requests
system.cpu0.itb.wrMisses                          306                       # TLB misses on write requests
system.cpu0.workload.numSyscalls                   60                       # Number of system calls
system.cpu0.pwrStateResidencyTicks::ON    48996884736                       # Cumulative time (in ticks) in various power states
system.cpu0.numCycles                       147137793                       # number of cpu cycles simulated
system.cpu0.numWorkItemsStarted                     0                       # number of work items this cpu started
system.cpu0.numWorkItemsCompleted                   0                       # number of work items this cpu completed
system.cpu0.fetch.icacheStallCycles           1404939                       # Number of cycles fetch is stalled on an Icache miss
system.cpu0.fetch.Insts                      10194961                       # Number of instructions fetch has processed
system.cpu0.fetch.Branches                     857212                       # Number of branches that fetch encountered
system.cpu0.fetch.predictedBranches            558064                       # Number of branches that fetch has predicted taken
system.cpu0.fetch.Cycles                    145613326                       # Number of cycles fetch has run and was not squashing or blocked
system.cpu0.fetch.SquashCycles                  16492                       # Number of cycles fetch has spent squashing
system.cpu0.fetch.MiscStallCycles                 183                       # Number of cycles fetch has spent waiting on interrupts, or bad addresses, or out of MSHRs
system.cpu0.fetch.PendingTrapStallCycles         1182                       # Number of stall cycles due to pending traps
system.cpu0.fetch.PendingQuiesceStallCycles            7                       # Number of stall cycles due to pending quiesce instructions
system.cpu0.fetch.IcacheWaitRetryStallCycles          106                       # Number of stall cycles due to full MSHR
system.cpu0.fetch.CacheLines                  1364203                       # Number of cache lines fetched
system.cpu0.fetch.IcacheSquashes                 2330                       # Number of outstanding Icache misses that were squashed
system.cpu0.fetch.rateDist::samples         147027989                       # Number of instructions fetched each cycle (Total)
system.cpu0.fetch.rateDist::mean             0.126196                       # Number of instructions fetched each cycle (Total)
system.cpu0.fetch.rateDist::stdev            0.919881                       # Number of instructions fetched each cycle (Total)
system.cpu0.fetch.rateDist::underflows              0      0.00%      0.00% # Number of instructions fetched each cycle (Total)
system.cpu0.fetch.rateDist::0               143844398     97.83%     97.83% # Number of instructions fetched each cycle (Total)
system.cpu0.fetch.rateDist::1                  254110      0.17%     98.01% # Number of instructions fetched each cycle (Total)
system.cpu0.fetch.rateDist::2                  240378      0.16%     98.17% # Number of instructions fetched each cycle (Total)
system.cpu0.fetch.rateDist::3                  212481      0.14%     98.32% # Number of instructions fetched each cycle (Total)
system.cpu0.fetch.rateDist::4                  167418      0.11%     98.43% # Number of instructions fetched each cycle (Total)
system.cpu0.fetch.rateDist::5                  238582      0.16%     98.59% # Number of instructions fetched each cycle (Total)
system.cpu0.fetch.rateDist::6                  572790      0.39%     98.98% # Number of instructions fetched each cycle (Total)
system.cpu0.fetch.rateDist::7                   99944      0.07%     99.05% # Number of instructions fetched each cycle (Total)
system.cpu0.fetch.rateDist::8                 1397888      0.95%    100.00% # Number of instructions fetched each cycle (Total)
system.cpu0.fetch.rateDist::overflows               0      0.00%    100.00% # Number of instructions fetched each cycle (Total)
system.cpu0.fetch.rateDist::min_value               0                       # Number of instructions fetched each cycle (Total)
system.cpu0.fetch.rateDist::max_value               8                       # Number of instructions fetched each cycle (Total)
system.cpu0.fetch.rateDist::total           147027989                       # Number of instructions fetched each cycle (Total)
system.cpu0.fetch.branchRate                 0.005826                       # Number of branch fetches per cycle
system.cpu0.fetch.rate                       0.069289                       # Number of inst fetches per cycle
system.cpu0.decode.IdleCycles                  738656                       # Number of cycles decode is idle
system.cpu0.decode.BlockedCycles            143915039                       # Number of cycles decode is blocked
system.cpu0.decode.RunCycles                   740086                       # Number of cycles decode is running
system.cpu0.decode.UnblockCycles              1625962                       # Number of cycles decode is unblocking
system.cpu0.decode.SquashCycles                  8246                       # Number of cycles decode is squashing
system.cpu0.decode.DecodedInsts              18454743                       # Number of instructions handled by decode
system.cpu0.rename.SquashCycles                  8246                       # Number of cycles rename is squashing
system.cpu0.rename.IdleCycles                 1342885                       # Number of cycles rename is idle
system.cpu0.rename.BlockCycles               64330322                       # Number of cycles rename is blocking
system.cpu0.rename.serializeStallCycles          5178                       # count of cycles rename stalled for serializing inst
system.cpu0.rename.RunCycles                  1738284                       # Number of cycles rename is running
system.cpu0.rename.UnblockCycles             79603074                       # Number of cycles rename is unblocking
system.cpu0.rename.RenamedInsts              18418910                       # Number of instructions processed by rename
system.cpu0.rename.ROBFullEvents                  108                       # Number of times rename has blocked due to ROB full
system.cpu0.rename.IQFullEvents                360849                       # Number of times rename has blocked due to IQ full
system.cpu0.rename.LQFullEvents                136093                       # Number of times rename has blocked due to LQ full
system.cpu0.rename.SQFullEvents              78725657                       # Number of times rename has blocked due to SQ full
system.cpu0.rename.RenamedOperands           17887028                       # Number of destination operands rename has renamed
system.cpu0.rename.RenameLookups             39756653                       # Number of register rename lookups that rename has made
system.cpu0.rename.int_rename_lookups        23654263                       # Number of integer rename lookups
system.cpu0.rename.fp_rename_lookups          4006113                       # Number of floating rename lookups
system.cpu0.rename.CommittedMaps             17640668                       # Number of HB maps that are committed
system.cpu0.rename.UndoneMaps                  246220                       # Number of HB maps that are undone due to squashing
system.cpu0.rename.serializingInsts               147                       # count of serializing insts renamed
system.cpu0.rename.tempSerializingInsts           145                       # count of temporary serializing insts renamed
system.cpu0.rename.skidInsts                 10233376                       # count of insts added to the skid buffer
system.cpu0.memDep0.insertedLoads             1528598                       # Number of loads inserted to the mem dependence unit.
system.cpu0.memDep0.insertedStores            4185828                       # Number of stores inserted to the mem dependence unit.
system.cpu0.memDep0.conflictingLoads            49411                       # Number of conflicting loads.
system.cpu0.memDep0.conflictingStores            2546                       # Number of conflicting stores.
system.cpu0.iq.iqInstsAdded                  18355899                       # Number of instructions added to the IQ (excludes non-spec)
system.cpu0.iq.iqNonSpecInstsAdded               1386                       # Number of non-speculative instructions added to the IQ
system.cpu0.iq.iqInstsIssued                 18322580                       # Number of instructions issued
system.cpu0.iq.iqSquashedInstsIssued             2289                       # Number of squashed instructions issued
system.cpu0.iq.iqSquashedInstsExamined         171846                       # Number of squashed instructions iterated over during squash; mainly for profiling
system.cpu0.iq.iqSquashedOperandsExamined       230898                       # Number of squashed operands that are examined and possibly removed from graph
system.cpu0.iq.iqSquashedNonSpecRemoved           890                       # Number of squashed non-spec instructions that were removed
system.cpu0.iq.issued_per_cycle::samples    147027989                       # Number of insts issued each cycle
system.cpu0.iq.issued_per_cycle::mean        0.124620                       # Number of insts issued each cycle
system.cpu0.iq.issued_per_cycle::stdev       0.646793                       # Number of insts issued each cycle
system.cpu0.iq.issued_per_cycle::underflows            0      0.00%      0.00% # Number of insts issued each cycle
system.cpu0.iq.issued_per_cycle::0          140033582     95.24%     95.24% # Number of insts issued each cycle
system.cpu0.iq.issued_per_cycle::1            1377901      0.94%     96.18% # Number of insts issued each cycle
system.cpu0.iq.issued_per_cycle::2            3188229      2.17%     98.35% # Number of insts issued each cycle
system.cpu0.iq.issued_per_cycle::3             764554      0.52%     98.87% # Number of insts issued each cycle
system.cpu0.iq.issued_per_cycle::4             594356      0.40%     99.27% # Number of insts issued each cycle
system.cpu0.iq.issued_per_cycle::5             699534      0.48%     99.75% # Number of insts issued each cycle
system.cpu0.iq.issued_per_cycle::6             250030      0.17%     99.92% # Number of insts issued each cycle
system.cpu0.iq.issued_per_cycle::7              59139      0.04%     99.96% # Number of insts issued each cycle
system.cpu0.iq.issued_per_cycle::8              60664      0.04%    100.00% # Number of insts issued each cycle
system.cpu0.iq.issued_per_cycle::overflows            0      0.00%    100.00% # Number of insts issued each cycle
system.cpu0.iq.issued_per_cycle::min_value            0                       # Number of insts issued each cycle
system.cpu0.iq.issued_per_cycle::max_value            8                       # Number of insts issued each cycle
system.cpu0.iq.issued_per_cycle::total      147027989                       # Number of insts issued each cycle
system.cpu0.iq.fu_full::No_OpClass                  0      0.00%      0.00% # attempts to use FU when none available
system.cpu0.iq.fu_full::IntAlu                  11656     42.77%     42.77% # attempts to use FU when none available
system.cpu0.iq.fu_full::IntMult                     0      0.00%     42.77% # attempts to use FU when none available
system.cpu0.iq.fu_full::IntDiv                      0      0.00%     42.77% # attempts to use FU when none available
system.cpu0.iq.fu_full::FloatAdd                  758      2.78%     45.55% # attempts to use FU when none available
system.cpu0.iq.fu_full::FloatCmp                    0      0.00%     45.55% # attempts to use FU when none available
system.cpu0.iq.fu_full::FloatCvt                    0      0.00%     45.55% # attempts to use FU when none available
system.cpu0.iq.fu_full::FloatMult                   0      0.00%     45.55% # attempts to use FU when none available
system.cpu0.iq.fu_full::FloatMultAcc                0      0.00%     45.55% # attempts to use FU when none available
system.cpu0.iq.fu_full::FloatDiv                    0      0.00%     45.55% # attempts to use FU when none available
system.cpu0.iq.fu_full::FloatMisc                   0      0.00%     45.55% # attempts to use FU when none available
system.cpu0.iq.fu_full::FloatSqrt                   0      0.00%     45.55% # attempts to use FU when none available
system.cpu0.iq.fu_full::SimdAdd                     0      0.00%     45.55% # attempts to use FU when none available
system.cpu0.iq.fu_full::SimdAddAcc                  0      0.00%     45.55% # attempts to use FU when none available
system.cpu0.iq.fu_full::SimdAlu                     0      0.00%     45.55% # attempts to use FU when none available
system.cpu0.iq.fu_full::SimdCmp                     0      0.00%     45.55% # attempts to use FU when none available
system.cpu0.iq.fu_full::SimdCvt                     0      0.00%     45.55% # attempts to use FU when none available
system.cpu0.iq.fu_full::SimdMisc                    0      0.00%     45.55% # attempts to use FU when none available
system.cpu0.iq.fu_full::SimdMult                    0      0.00%     45.55% # attempts to use FU when none available
system.cpu0.iq.fu_full::SimdMultAcc                 0      0.00%     45.55% # attempts to use FU when none available
system.cpu0.iq.fu_full::SimdShift                   0      0.00%     45.55% # attempts to use FU when none available
system.cpu0.iq.fu_full::SimdShiftAcc                0      0.00%     45.55% # attempts to use FU when none available
system.cpu0.iq.fu_full::SimdSqrt                    0      0.00%     45.55% # attempts to use FU when none available
system.cpu0.iq.fu_full::SimdFloatAdd                0      0.00%     45.55% # attempts to use FU when none available
system.cpu0.iq.fu_full::SimdFloatAlu                0      0.00%     45.55% # attempts to use FU when none available
system.cpu0.iq.fu_full::SimdFloatCmp                0      0.00%     45.55% # attempts to use FU when none available
system.cpu0.iq.fu_full::SimdFloatCvt                0      0.00%     45.55% # attempts to use FU when none available
system.cpu0.iq.fu_full::SimdFloatDiv                0      0.00%     45.55% # attempts to use FU when none available
system.cpu0.iq.fu_full::SimdFloatMisc               0      0.00%     45.55% # attempts to use FU when none available
system.cpu0.iq.fu_full::SimdFloatMult               0      0.00%     45.55% # attempts to use FU when none available
system.cpu0.iq.fu_full::SimdFloatMultAcc            0      0.00%     45.55% # attempts to use FU when none available
system.cpu0.iq.fu_full::SimdFloatSqrt               0      0.00%     45.55% # attempts to use FU when none available
system.cpu0.iq.fu_full::MemRead                   806      2.96%     48.51% # attempts to use FU when none available
system.cpu0.iq.fu_full::MemWrite                  762      2.80%     51.31% # attempts to use FU when none available
system.cpu0.iq.fu_full::FloatMemRead             6901     25.32%     76.63% # attempts to use FU when none available
system.cpu0.iq.fu_full::FloatMemWrite            6369     23.37%    100.00% # attempts to use FU when none available
system.cpu0.iq.fu_full::IprAccess                   0      0.00%    100.00% # attempts to use FU when none available
system.cpu0.iq.fu_full::InstPrefetch                0      0.00%    100.00% # attempts to use FU when none available
system.cpu0.iq.FU_type_0::No_OpClass            20822      0.11%      0.11% # Type of FU issued
system.cpu0.iq.FU_type_0::IntAlu             11566534     63.13%     63.24% # Type of FU issued
system.cpu0.iq.FU_type_0::IntMult                 115      0.00%     63.24% # Type of FU issued
system.cpu0.iq.FU_type_0::IntDiv                  319      0.00%     63.24% # Type of FU issued
system.cpu0.iq.FU_type_0::FloatAdd            1013518      5.53%     68.77% # Type of FU issued
system.cpu0.iq.FU_type_0::FloatCmp                  0      0.00%     68.77% # Type of FU issued
system.cpu0.iq.FU_type_0::FloatCvt                  0      0.00%     68.77% # Type of FU issued
system.cpu0.iq.FU_type_0::FloatMult                 0      0.00%     68.77% # Type of FU issued
system.cpu0.iq.FU_type_0::FloatMultAcc              0      0.00%     68.77% # Type of FU issued
system.cpu0.iq.FU_type_0::FloatDiv                  0      0.00%     68.77% # Type of FU issued
system.cpu0.iq.FU_type_0::FloatMisc                 0      0.00%     68.77% # Type of FU issued
system.cpu0.iq.FU_type_0::FloatSqrt                 0      0.00%     68.77% # Type of FU issued
system.cpu0.iq.FU_type_0::SimdAdd                   0      0.00%     68.77% # Type of FU issued
system.cpu0.iq.FU_type_0::SimdAddAcc                0      0.00%     68.77% # Type of FU issued
system.cpu0.iq.FU_type_0::SimdAlu                   0      0.00%     68.77% # Type of FU issued
system.cpu0.iq.FU_type_0::SimdCmp                   0      0.00%     68.77% # Type of FU issued
system.cpu0.iq.FU_type_0::SimdCvt                   0      0.00%     68.77% # Type of FU issued
system.cpu0.iq.FU_type_0::SimdMisc                  0      0.00%     68.77% # Type of FU issued
system.cpu0.iq.FU_type_0::SimdMult                  0      0.00%     68.77% # Type of FU issued
system.cpu0.iq.FU_type_0::SimdMultAcc               0      0.00%     68.77% # Type of FU issued
system.cpu0.iq.FU_type_0::SimdShift                 0      0.00%     68.77% # Type of FU issued
system.cpu0.iq.FU_type_0::SimdShiftAcc              0      0.00%     68.77% # Type of FU issued
system.cpu0.iq.FU_type_0::SimdSqrt                  0      0.00%     68.77% # Type of FU issued
system.cpu0.iq.FU_type_0::SimdFloatAdd              0      0.00%     68.77% # Type of FU issued
system.cpu0.iq.FU_type_0::SimdFloatAlu              0      0.00%     68.77% # Type of FU issued
system.cpu0.iq.FU_type_0::SimdFloatCmp              0      0.00%     68.77% # Type of FU issued
system.cpu0.iq.FU_type_0::SimdFloatCvt              0      0.00%     68.77% # Type of FU issued
system.cpu0.iq.FU_type_0::SimdFloatDiv              0      0.00%     68.77% # Type of FU issued
system.cpu0.iq.FU_type_0::SimdFloatMisc             0      0.00%     68.77% # Type of FU issued
system.cpu0.iq.FU_type_0::SimdFloatMult             0      0.00%     68.77% # Type of FU issued
system.cpu0.iq.FU_type_0::SimdFloatMultAcc            0      0.00%     68.77% # Type of FU issued
system.cpu0.iq.FU_type_0::SimdFloatSqrt             0      0.00%     68.77% # Type of FU issued
system.cpu0.iq.FU_type_0::MemRead              904341      4.94%     73.71% # Type of FU issued
system.cpu0.iq.FU_type_0::MemWrite            3882196     21.19%     94.90% # Type of FU issued
system.cpu0.iq.FU_type_0::FloatMemRead         638137      3.48%     98.38% # Type of FU issued
system.cpu0.iq.FU_type_0::FloatMemWrite        296598      1.62%    100.00% # Type of FU issued
system.cpu0.iq.FU_type_0::IprAccess                 0      0.00%    100.00% # Type of FU issued
system.cpu0.iq.FU_type_0::InstPrefetch              0      0.00%    100.00% # Type of FU issued
system.cpu0.iq.FU_type_0::total              18322580                       # Type of FU issued
system.cpu0.iq.rate                          0.124527                       # Inst issue rate
system.cpu0.iq.fu_busy_cnt                      27252                       # FU busy when requested
system.cpu0.iq.fu_busy_rate                  0.001487                       # FU busy rate (busy events/executed inst)
system.cpu0.iq.int_inst_queue_reads         178765640                       # Number of integer instruction queue reads
system.cpu0.iq.int_inst_queue_writes         16070140                       # Number of integer instruction queue writes
system.cpu0.iq.int_inst_queue_wakeup_accesses     15838572                       # Number of integer instruction queue wakeup accesses
system.cpu0.iq.fp_inst_queue_reads            4937048                       # Number of floating instruction queue reads
system.cpu0.iq.fp_inst_queue_writes           2459351                       # Number of floating instruction queue writes
system.cpu0.iq.fp_inst_queue_wakeup_accesses      2438986                       # Number of floating instruction queue wakeup accesses
system.cpu0.iq.vec_inst_queue_reads                 0                       # Number of vector instruction queue reads
system.cpu0.iq.vec_inst_queue_writes                0                       # Number of vector instruction queue writes
system.cpu0.iq.vec_inst_queue_wakeup_accesses            0                       # Number of vector instruction queue wakeup accesses
system.cpu0.iq.int_alu_accesses              15852079                       # Number of integer alu accesses
system.cpu0.iq.fp_alu_accesses                2476931                       # Number of floating point alu accesses
system.cpu0.iq.vec_alu_accesses                     0                       # Number of vector alu accesses
system.cpu0.iew.lsq.thread0.forwLoads          110264                       # Number of loads that had data forwarded from stores
system.cpu0.iew.lsq.thread0.invAddrLoads            0                       # Number of loads ignored due to an invalid address
system.cpu0.iew.lsq.thread0.squashedLoads        24423                       # Number of loads squashed
system.cpu0.iew.lsq.thread0.ignoredResponses           68                       # Number of memory responses ignored because the instruction is squashed
system.cpu0.iew.lsq.thread0.memOrderViolation          363                       # Number of memory ordering violations
system.cpu0.iew.lsq.thread0.squashedStores        15819                       # Number of stores squashed
system.cpu0.iew.lsq.thread0.invAddrSwpfs            0                       # Number of software prefetches ignored due to an invalid address
system.cpu0.iew.lsq.thread0.blockedLoads            0                       # Number of blocked loads due to partial load-store forwarding
system.cpu0.iew.lsq.thread0.rescheduledLoads        19192                       # Number of loads that were rescheduled
system.cpu0.iew.lsq.thread0.cacheBlocked         1818                       # Number of times an access to memory failed due to the cache being blocked
system.cpu0.iew.iewIdleCycles                       0                       # Number of cycles IEW is idle
system.cpu0.iew.iewSquashCycles                  8246                       # Number of cycles IEW is squashing
system.cpu0.iew.iewBlockCycles                  53516                       # Number of cycles IEW is blocking
system.cpu0.iew.iewUnblockCycles             64201217                       # Number of cycles IEW is unblocking
system.cpu0.iew.iewDispatchedInsts           18357285                       # Number of instructions dispatched to IQ
system.cpu0.iew.iewDispSquashedInsts              666                       # Number of squashed instructions skipped by dispatch
system.cpu0.iew.iewDispLoadInsts              1528598                       # Number of dispatched load instructions
system.cpu0.iew.iewDispStoreInsts             4185828                       # Number of dispatched store instructions
system.cpu0.iew.iewDispNonSpecInsts               558                       # Number of dispatched non-speculative instructions
system.cpu0.iew.iewIQFullEvents                  7203                       # Number of times the IQ has become full, causing a stall
system.cpu0.iew.iewLSQFullEvents             64132179                       # Number of times the LSQ has become full, causing a stall
system.cpu0.iew.memOrderViolationEvents           363                       # Number of memory order violations
system.cpu0.iew.predictedTakenIncorrect          2734                       # Number of branches that were predicted taken incorrectly
system.cpu0.iew.predictedNotTakenIncorrect         7232                       # Number of branches that were predicted not taken incorrectly
system.cpu0.iew.branchMispredicts                9966                       # Number of branch mispredicts detected at execute
system.cpu0.iew.iewExecutedInsts             18305315                       # Number of executed instructions
system.cpu0.iew.iewExecLoadInsts              1539098                       # Number of load instructions executed
system.cpu0.iew.iewExecSquashedInsts            17263                       # Number of squashed instructions skipped in execute
system.cpu0.iew.exec_swp                            0                       # number of swp insts executed
system.cpu0.iew.exec_nop                            0                       # number of nop insts executed
system.cpu0.iew.exec_refs                     5715675                       # number of memory reference insts executed
system.cpu0.iew.exec_branches                  828676                       # Number of branches executed
system.cpu0.iew.exec_stores                   4176577                       # Number of stores executed
system.cpu0.iew.exec_rate                    0.124409                       # Inst execution rate
system.cpu0.iew.wb_sent                      18280859                       # cumulative count of insts sent to commit
system.cpu0.iew.wb_count                     18277558                       # cumulative count of insts written-back
system.cpu0.iew.wb_producers                  8775250                       # num instructions producing a value
system.cpu0.iew.wb_consumers                 12235066                       # num instructions consuming a value
system.cpu0.iew.wb_rate                      0.124221                       # insts written-back per cycle
system.cpu0.iew.wb_fanout                    0.717221                       # average fanout of values written-back
system.cpu0.commit.commitSquashedInsts         172096                       # The number of squashed insts skipped by commit
system.cpu0.commit.commitNonSpecStalls            496                       # The number of times commit has been forced to stall to communicate backwards
system.cpu0.commit.branchMispredicts             7936                       # The number of times a branch was mispredicted
system.cpu0.commit.committed_per_cycle::samples    147000908                       # Number of insts commited each cycle
system.cpu0.commit.committed_per_cycle::mean     0.123709                       # Number of insts commited each cycle
system.cpu0.commit.committed_per_cycle::stdev     0.730652                       # Number of insts commited each cycle
system.cpu0.commit.committed_per_cycle::underflows            0      0.00%      0.00% # Number of insts commited each cycle
system.cpu0.commit.committed_per_cycle::0    140855243     95.82%     95.82% # Number of insts commited each cycle
system.cpu0.commit.committed_per_cycle::1       934053      0.64%     96.45% # Number of insts commited each cycle
system.cpu0.commit.committed_per_cycle::2      3060741      2.08%     98.54% # Number of insts commited each cycle
system.cpu0.commit.committed_per_cycle::3       772821      0.53%     99.06% # Number of insts commited each cycle
system.cpu0.commit.committed_per_cycle::4       371609      0.25%     99.32% # Number of insts commited each cycle
system.cpu0.commit.committed_per_cycle::5       146600      0.10%     99.42% # Number of insts commited each cycle
system.cpu0.commit.committed_per_cycle::6       128095      0.09%     99.50% # Number of insts commited each cycle
system.cpu0.commit.committed_per_cycle::7        30655      0.02%     99.52% # Number of insts commited each cycle
system.cpu0.commit.committed_per_cycle::8       701091      0.48%    100.00% # Number of insts commited each cycle
system.cpu0.commit.committed_per_cycle::overflows            0      0.00%    100.00% # Number of insts commited each cycle
system.cpu0.commit.committed_per_cycle::min_value            0                       # Number of insts commited each cycle
system.cpu0.commit.committed_per_cycle::max_value            8                       # Number of insts commited each cycle
system.cpu0.commit.committed_per_cycle::total    147000908                       # Number of insts commited each cycle
system.cpu0.commit.committedInsts             9993930                       # Number of instructions committed
system.cpu0.commit.committedOps              18185317                       # Number of ops (including micro ops) committed
system.cpu0.commit.swp_count                        0                       # Number of s/w prefetches committed
system.cpu0.commit.refs                       5674164                       # Number of memory references committed
system.cpu0.commit.loads                      1504164                       # Number of loads committed
system.cpu0.commit.membars                        272                       # Number of memory barriers committed
system.cpu0.commit.branches                    821545                       # Number of branches committed
system.cpu0.commit.vec_insts                        0                       # Number of committed Vector instructions.
system.cpu0.commit.fp_insts                   2434436                       # Number of committed floating point instructions.
system.cpu0.commit.int_insts                 16708018                       # Number of committed integer instructions.
system.cpu0.commit.function_calls               19214                       # Number of function calls committed.
system.cpu0.commit.op_class_0::No_OpClass        18228      0.10%      0.10% # Class of committed instruction
system.cpu0.commit.op_class_0::IntAlu        11480647     63.13%     63.23% # Class of committed instruction
system.cpu0.commit.op_class_0::IntMult            100      0.00%     63.23% # Class of committed instruction
system.cpu0.commit.op_class_0::IntDiv             275      0.00%     63.23% # Class of committed instruction
system.cpu0.commit.op_class_0::FloatAdd       1011903      5.56%     68.80% # Class of committed instruction
system.cpu0.commit.op_class_0::FloatCmp             0      0.00%     68.80% # Class of committed instruction
system.cpu0.commit.op_class_0::FloatCvt             0      0.00%     68.80% # Class of committed instruction
system.cpu0.commit.op_class_0::FloatMult            0      0.00%     68.80% # Class of committed instruction
system.cpu0.commit.op_class_0::FloatMultAcc            0      0.00%     68.80% # Class of committed instruction
system.cpu0.commit.op_class_0::FloatDiv             0      0.00%     68.80% # Class of committed instruction
system.cpu0.commit.op_class_0::FloatMisc            0      0.00%     68.80% # Class of committed instruction
system.cpu0.commit.op_class_0::FloatSqrt            0      0.00%     68.80% # Class of committed instruction
system.cpu0.commit.op_class_0::SimdAdd              0      0.00%     68.80% # Class of committed instruction
system.cpu0.commit.op_class_0::SimdAddAcc            0      0.00%     68.80% # Class of committed instruction
system.cpu0.commit.op_class_0::SimdAlu              0      0.00%     68.80% # Class of committed instruction
system.cpu0.commit.op_class_0::SimdCmp              0      0.00%     68.80% # Class of committed instruction
system.cpu0.commit.op_class_0::SimdCvt              0      0.00%     68.80% # Class of committed instruction
system.cpu0.commit.op_class_0::SimdMisc             0      0.00%     68.80% # Class of committed instruction
system.cpu0.commit.op_class_0::SimdMult             0      0.00%     68.80% # Class of committed instruction
system.cpu0.commit.op_class_0::SimdMultAcc            0      0.00%     68.80% # Class of committed instruction
system.cpu0.commit.op_class_0::SimdShift            0      0.00%     68.80% # Class of committed instruction
system.cpu0.commit.op_class_0::SimdShiftAcc            0      0.00%     68.80% # Class of committed instruction
system.cpu0.commit.op_class_0::SimdSqrt             0      0.00%     68.80% # Class of committed instruction
system.cpu0.commit.op_class_0::SimdFloatAdd            0      0.00%     68.80% # Class of committed instruction
system.cpu0.commit.op_class_0::SimdFloatAlu            0      0.00%     68.80% # Class of committed instruction
system.cpu0.commit.op_class_0::SimdFloatCmp            0      0.00%     68.80% # Class of committed instruction
system.cpu0.commit.op_class_0::SimdFloatCvt            0      0.00%     68.80% # Class of committed instruction
system.cpu0.commit.op_class_0::SimdFloatDiv            0      0.00%     68.80% # Class of committed instruction
system.cpu0.commit.op_class_0::SimdFloatMisc            0      0.00%     68.80% # Class of committed instruction
system.cpu0.commit.op_class_0::SimdFloatMult            0      0.00%     68.80% # Class of committed instruction
system.cpu0.commit.op_class_0::SimdFloatMultAcc            0      0.00%     68.80% # Class of committed instruction
system.cpu0.commit.op_class_0::SimdFloatSqrt            0      0.00%     68.80% # Class of committed instruction
system.cpu0.commit.op_class_0::MemRead         887279      4.88%     73.68% # Class of committed instruction
system.cpu0.commit.op_class_0::MemWrite       3875185     21.31%     94.99% # Class of committed instruction
system.cpu0.commit.op_class_0::FloatMemRead       616885      3.39%     98.38% # Class of committed instruction
system.cpu0.commit.op_class_0::FloatMemWrite       294815      1.62%    100.00% # Class of committed instruction
system.cpu0.commit.op_class_0::IprAccess            0      0.00%    100.00% # Class of committed instruction
system.cpu0.commit.op_class_0::InstPrefetch            0      0.00%    100.00% # Class of committed instruction
system.cpu0.commit.op_class_0::total         18185317                       # Class of committed instruction
system.cpu0.commit.bw_lim_events               701091                       # number cycles where commit BW limit reached
system.cpu0.rob.rob_reads                   164657230                       # The number of ROB reads
system.cpu0.rob.rob_writes                   36742496                       # The number of ROB writes
system.cpu0.timesIdled                            658                       # Number of times that the entire CPU went into an idle state and unscheduled itself
system.cpu0.idleCycles                         109804                       # Total number of cycles that the CPU has spent unscheduled due to idling
system.cpu0.committedInsts                    9993930                       # Number of Instructions Simulated
system.cpu0.committedOps                     18185317                       # Number of Ops (including micro ops) Simulated
system.cpu0.cpi                             14.722716                       # CPI: Cycles Per Instruction
system.cpu0.cpi_total                       14.722716                       # CPI: Total CPI of All Threads
system.cpu0.ipc                              0.067922                       # IPC: Instructions Per Cycle
system.cpu0.ipc_total                        0.067922                       # IPC: Total IPC of All Threads
system.cpu0.int_regfile_reads                23479573                       # number of integer regfile reads
system.cpu0.int_regfile_writes               11176277                       # number of integer regfile writes
system.cpu0.fp_regfile_reads                  3990681                       # number of floating regfile reads
system.cpu0.fp_regfile_writes                 1998053                       # number of floating regfile writes
system.cpu0.cc_regfile_reads                  4305189                       # number of cc regfile reads
system.cpu0.cc_regfile_writes                 4567156                       # number of cc regfile writes
system.cpu0.misc_regfile_reads                7676007                       # number of misc regfile reads
system.cpu0.misc_regfile_writes                    26                       # number of misc regfile writes
system.cpu0.dcache.tags.pwrStateResidencyTicks::UNDEFINED  48996884736                       # Cumulative time (in ticks) in various power states
system.cpu0.dcache.tags.replacements           541271                       # number of replacements
system.cpu0.dcache.tags.tagsinuse          511.656541                       # Cycle average of tags in use
system.cpu0.dcache.tags.total_refs            5018339                       # Total number of references to valid blocks.
system.cpu0.dcache.tags.sampled_refs           541783                       # Sample count of references to valid blocks.
system.cpu0.dcache.tags.avg_refs             9.262637                       # Average number of references to valid blocks.
system.cpu0.dcache.tags.warmup_cycle           167166                       # Cycle when the warmup percentage was hit.
system.cpu0.dcache.tags.occ_blocks::cpu0.data   511.656541                       # Average occupied blocks per requestor
system.cpu0.dcache.tags.occ_percent::cpu0.data     0.999329                       # Average percentage of cache occupancy
system.cpu0.dcache.tags.occ_percent::total     0.999329                       # Average percentage of cache occupancy
system.cpu0.dcache.tags.occ_task_id_blocks::1024          512                       # Occupied blocks per task id
system.cpu0.dcache.tags.age_task_id_blocks_1024::0           85                       # Occupied blocks per task id
system.cpu0.dcache.tags.age_task_id_blocks_1024::1          397                       # Occupied blocks per task id
system.cpu0.dcache.tags.age_task_id_blocks_1024::2           28                       # Occupied blocks per task id
system.cpu0.dcache.tags.age_task_id_blocks_1024::3            2                       # Occupied blocks per task id
system.cpu0.dcache.tags.occ_task_id_percent::1024            1                       # Percentage of cache occupancy per task id
system.cpu0.dcache.tags.tag_accesses         45162231                       # Number of tag accesses
system.cpu0.dcache.tags.data_accesses        45162231                       # Number of data accesses
system.cpu0.dcache.pwrStateResidencyTicks::UNDEFINED  48996884736                       # Cumulative time (in ticks) in various power states
system.cpu0.dcache.ReadReq_hits::cpu0.data      1377042                       # number of ReadReq hits
system.cpu0.dcache.ReadReq_hits::total        1377042                       # number of ReadReq hits
system.cpu0.dcache.WriteReq_hits::cpu0.data      3641290                       # number of WriteReq hits
system.cpu0.dcache.WriteReq_hits::total       3641290                       # number of WriteReq hits
system.cpu0.dcache.demand_hits::cpu0.data      5018332                       # number of demand (read+write) hits
system.cpu0.dcache.demand_hits::total         5018332                       # number of demand (read+write) hits
system.cpu0.dcache.overall_hits::cpu0.data      5018332                       # number of overall hits
system.cpu0.dcache.overall_hits::total        5018332                       # number of overall hits
system.cpu0.dcache.ReadReq_misses::cpu0.data        30508                       # number of ReadReq misses
system.cpu0.dcache.ReadReq_misses::total        30508                       # number of ReadReq misses
system.cpu0.dcache.WriteReq_misses::cpu0.data       528716                       # number of WriteReq misses
system.cpu0.dcache.WriteReq_misses::total       528716                       # number of WriteReq misses
system.cpu0.dcache.demand_misses::cpu0.data       559224                       # number of demand (read+write) misses
system.cpu0.dcache.demand_misses::total        559224                       # number of demand (read+write) misses
system.cpu0.dcache.overall_misses::cpu0.data       559224                       # number of overall misses
system.cpu0.dcache.overall_misses::total       559224                       # number of overall misses
system.cpu0.dcache.ReadReq_miss_latency::cpu0.data    298753614                       # number of ReadReq miss cycles
system.cpu0.dcache.ReadReq_miss_latency::total    298753614                       # number of ReadReq miss cycles
system.cpu0.dcache.WriteReq_miss_latency::cpu0.data  46124611529                       # number of WriteReq miss cycles
system.cpu0.dcache.WriteReq_miss_latency::total  46124611529                       # number of WriteReq miss cycles
system.cpu0.dcache.demand_miss_latency::cpu0.data  46423365143                       # number of demand (read+write) miss cycles
system.cpu0.dcache.demand_miss_latency::total  46423365143                       # number of demand (read+write) miss cycles
system.cpu0.dcache.overall_miss_latency::cpu0.data  46423365143                       # number of overall miss cycles
system.cpu0.dcache.overall_miss_latency::total  46423365143                       # number of overall miss cycles
system.cpu0.dcache.ReadReq_accesses::cpu0.data      1407550                       # number of ReadReq accesses(hits+misses)
system.cpu0.dcache.ReadReq_accesses::total      1407550                       # number of ReadReq accesses(hits+misses)
system.cpu0.dcache.WriteReq_accesses::cpu0.data      4170006                       # number of WriteReq accesses(hits+misses)
system.cpu0.dcache.WriteReq_accesses::total      4170006                       # number of WriteReq accesses(hits+misses)
system.cpu0.dcache.demand_accesses::cpu0.data      5577556                       # number of demand (read+write) accesses
system.cpu0.dcache.demand_accesses::total      5577556                       # number of demand (read+write) accesses
system.cpu0.dcache.overall_accesses::cpu0.data      5577556                       # number of overall (read+write) accesses
system.cpu0.dcache.overall_accesses::total      5577556                       # number of overall (read+write) accesses
system.cpu0.dcache.ReadReq_miss_rate::cpu0.data     0.021675                       # miss rate for ReadReq accesses
system.cpu0.dcache.ReadReq_miss_rate::total     0.021675                       # miss rate for ReadReq accesses
system.cpu0.dcache.WriteReq_miss_rate::cpu0.data     0.126790                       # miss rate for WriteReq accesses
system.cpu0.dcache.WriteReq_miss_rate::total     0.126790                       # miss rate for WriteReq accesses
system.cpu0.dcache.demand_miss_rate::cpu0.data     0.100263                       # miss rate for demand accesses
system.cpu0.dcache.demand_miss_rate::total     0.100263                       # miss rate for demand accesses
system.cpu0.dcache.overall_miss_rate::cpu0.data     0.100263                       # miss rate for overall accesses
system.cpu0.dcache.overall_miss_rate::total     0.100263                       # miss rate for overall accesses
system.cpu0.dcache.ReadReq_avg_miss_latency::cpu0.data  9792.631900                       # average ReadReq miss latency
system.cpu0.dcache.ReadReq_avg_miss_latency::total  9792.631900                       # average ReadReq miss latency
system.cpu0.dcache.WriteReq_avg_miss_latency::cpu0.data 87238.917546                       # average WriteReq miss latency
system.cpu0.dcache.WriteReq_avg_miss_latency::total 87238.917546                       # average WriteReq miss latency
system.cpu0.dcache.demand_avg_miss_latency::cpu0.data 83013.899874                       # average overall miss latency
system.cpu0.dcache.demand_avg_miss_latency::total 83013.899874                       # average overall miss latency
system.cpu0.dcache.overall_avg_miss_latency::cpu0.data 83013.899874                       # average overall miss latency
system.cpu0.dcache.overall_avg_miss_latency::total 83013.899874                       # average overall miss latency
system.cpu0.dcache.blocked_cycles::no_mshrs         3813                       # number of cycles access was blocked
system.cpu0.dcache.blocked_cycles::no_targets            0                       # number of cycles access was blocked
system.cpu0.dcache.blocked::no_mshrs              567                       # number of cycles access was blocked
system.cpu0.dcache.blocked::no_targets              0                       # number of cycles access was blocked
system.cpu0.dcache.avg_blocked_cycles::no_mshrs     6.724868                       # average number of cycles each access was blocked
system.cpu0.dcache.avg_blocked_cycles::no_targets          nan                       # average number of cycles each access was blocked
system.cpu0.dcache.writebacks::writebacks       536115                       # number of writebacks
system.cpu0.dcache.writebacks::total           536115                       # number of writebacks
system.cpu0.dcache.ReadReq_mshr_hits::cpu0.data        17434                       # number of ReadReq MSHR hits
system.cpu0.dcache.ReadReq_mshr_hits::total        17434                       # number of ReadReq MSHR hits
system.cpu0.dcache.demand_mshr_hits::cpu0.data        17434                       # number of demand (read+write) MSHR hits
system.cpu0.dcache.demand_mshr_hits::total        17434                       # number of demand (read+write) MSHR hits
system.cpu0.dcache.overall_mshr_hits::cpu0.data        17434                       # number of overall MSHR hits
system.cpu0.dcache.overall_mshr_hits::total        17434                       # number of overall MSHR hits
system.cpu0.dcache.ReadReq_mshr_misses::cpu0.data        13074                       # number of ReadReq MSHR misses
system.cpu0.dcache.ReadReq_mshr_misses::total        13074                       # number of ReadReq MSHR misses
system.cpu0.dcache.WriteReq_mshr_misses::cpu0.data       528716                       # number of WriteReq MSHR misses
system.cpu0.dcache.WriteReq_mshr_misses::total       528716                       # number of WriteReq MSHR misses
system.cpu0.dcache.demand_mshr_misses::cpu0.data       541790                       # number of demand (read+write) MSHR misses
system.cpu0.dcache.demand_mshr_misses::total       541790                       # number of demand (read+write) MSHR misses
system.cpu0.dcache.overall_mshr_misses::cpu0.data       541790                       # number of overall MSHR misses
system.cpu0.dcache.overall_mshr_misses::total       541790                       # number of overall MSHR misses
system.cpu0.dcache.ReadReq_mshr_miss_latency::cpu0.data    113450103                       # number of ReadReq MSHR miss cycles
system.cpu0.dcache.ReadReq_mshr_miss_latency::total    113450103                       # number of ReadReq MSHR miss cycles
system.cpu0.dcache.WriteReq_mshr_miss_latency::cpu0.data  45772486673                       # number of WriteReq MSHR miss cycles
system.cpu0.dcache.WriteReq_mshr_miss_latency::total  45772486673                       # number of WriteReq MSHR miss cycles
system.cpu0.dcache.demand_mshr_miss_latency::cpu0.data  45885936776                       # number of demand (read+write) MSHR miss cycles
system.cpu0.dcache.demand_mshr_miss_latency::total  45885936776                       # number of demand (read+write) MSHR miss cycles
system.cpu0.dcache.overall_mshr_miss_latency::cpu0.data  45885936776                       # number of overall MSHR miss cycles
system.cpu0.dcache.overall_mshr_miss_latency::total  45885936776                       # number of overall MSHR miss cycles
system.cpu0.dcache.ReadReq_mshr_miss_rate::cpu0.data     0.009288                       # mshr miss rate for ReadReq accesses
system.cpu0.dcache.ReadReq_mshr_miss_rate::total     0.009288                       # mshr miss rate for ReadReq accesses
system.cpu0.dcache.WriteReq_mshr_miss_rate::cpu0.data     0.126790                       # mshr miss rate for WriteReq accesses
system.cpu0.dcache.WriteReq_mshr_miss_rate::total     0.126790                       # mshr miss rate for WriteReq accesses
system.cpu0.dcache.demand_mshr_miss_rate::cpu0.data     0.097138                       # mshr miss rate for demand accesses
system.cpu0.dcache.demand_mshr_miss_rate::total     0.097138                       # mshr miss rate for demand accesses
system.cpu0.dcache.overall_mshr_miss_rate::cpu0.data     0.097138                       # mshr miss rate for overall accesses
system.cpu0.dcache.overall_mshr_miss_rate::total     0.097138                       # mshr miss rate for overall accesses
system.cpu0.dcache.ReadReq_avg_mshr_miss_latency::cpu0.data  8677.535796                       # average ReadReq mshr miss latency
system.cpu0.dcache.ReadReq_avg_mshr_miss_latency::total  8677.535796                       # average ReadReq mshr miss latency
system.cpu0.dcache.WriteReq_avg_mshr_miss_latency::cpu0.data 86572.917546                       # average WriteReq mshr miss latency
system.cpu0.dcache.WriteReq_avg_mshr_miss_latency::total 86572.917546                       # average WriteReq mshr miss latency
system.cpu0.dcache.demand_avg_mshr_miss_latency::cpu0.data 84693.214670                       # average overall mshr miss latency
system.cpu0.dcache.demand_avg_mshr_miss_latency::total 84693.214670                       # average overall mshr miss latency
system.cpu0.dcache.overall_avg_mshr_miss_latency::cpu0.data 84693.214670                       # average overall mshr miss latency
system.cpu0.dcache.overall_avg_mshr_miss_latency::total 84693.214670                       # average overall mshr miss latency
system.cpu0.dtb_walker_cache.tags.pwrStateResidencyTicks::UNDEFINED  48996884736                       # Cumulative time (in ticks) in various power states
system.cpu0.dtb_walker_cache.tags.replacements            0                       # number of replacements
system.cpu0.dtb_walker_cache.tags.tagsinuse            0                       # Cycle average of tags in use
system.cpu0.dtb_walker_cache.tags.total_refs            0                       # Total number of references to valid blocks.
system.cpu0.dtb_walker_cache.tags.sampled_refs            0                       # Sample count of references to valid blocks.
system.cpu0.dtb_walker_cache.tags.avg_refs          nan                       # Average number of references to valid blocks.
system.cpu0.dtb_walker_cache.tags.warmup_cycle            0                       # Cycle when the warmup percentage was hit.
system.cpu0.dtb_walker_cache.tags.tag_accesses            0                       # Number of tag accesses
system.cpu0.dtb_walker_cache.tags.data_accesses            0                       # Number of data accesses
system.cpu0.dtb_walker_cache.pwrStateResidencyTicks::UNDEFINED  48996884736                       # Cumulative time (in ticks) in various power states
system.cpu0.dtb_walker_cache.blocked_cycles::no_mshrs            0                       # number of cycles access was blocked
system.cpu0.dtb_walker_cache.blocked_cycles::no_targets            0                       # number of cycles access was blocked
system.cpu0.dtb_walker_cache.blocked::no_mshrs            0                       # number of cycles access was blocked
system.cpu0.dtb_walker_cache.blocked::no_targets            0                       # number of cycles access was blocked
system.cpu0.dtb_walker_cache.avg_blocked_cycles::no_mshrs          nan                       # average number of cycles each access was blocked
system.cpu0.dtb_walker_cache.avg_blocked_cycles::no_targets          nan                       # average number of cycles each access was blocked
system.cpu0.icache.tags.pwrStateResidencyTicks::UNDEFINED  48996884736                       # Cumulative time (in ticks) in various power states
system.cpu0.icache.tags.replacements              863                       # number of replacements
system.cpu0.icache.tags.tagsinuse          511.798359                       # Cycle average of tags in use
system.cpu0.icache.tags.total_refs            1362488                       # Total number of references to valid blocks.
system.cpu0.icache.tags.sampled_refs             1375                       # Sample count of references to valid blocks.
system.cpu0.icache.tags.avg_refs           990.900364                       # Average number of references to valid blocks.
system.cpu0.icache.tags.warmup_cycle            81252                       # Cycle when the warmup percentage was hit.
system.cpu0.icache.tags.occ_blocks::cpu0.inst   511.798359                       # Average occupied blocks per requestor
system.cpu0.icache.tags.occ_percent::cpu0.inst     0.999606                       # Average percentage of cache occupancy
system.cpu0.icache.tags.occ_percent::total     0.999606                       # Average percentage of cache occupancy
system.cpu0.icache.tags.occ_task_id_blocks::1024          512                       # Occupied blocks per task id
system.cpu0.icache.tags.age_task_id_blocks_1024::2           65                       # Occupied blocks per task id
system.cpu0.icache.tags.age_task_id_blocks_1024::3            2                       # Occupied blocks per task id
system.cpu0.icache.tags.age_task_id_blocks_1024::4          445                       # Occupied blocks per task id
system.cpu0.icache.tags.occ_task_id_percent::1024            1                       # Percentage of cache occupancy per task id
system.cpu0.icache.tags.tag_accesses         10915004                       # Number of tag accesses
system.cpu0.icache.tags.data_accesses        10915004                       # Number of data accesses
system.cpu0.icache.pwrStateResidencyTicks::UNDEFINED  48996884736                       # Cumulative time (in ticks) in various power states
system.cpu0.icache.ReadReq_hits::cpu0.inst      1362488                       # number of ReadReq hits
system.cpu0.icache.ReadReq_hits::total        1362488                       # number of ReadReq hits
system.cpu0.icache.demand_hits::cpu0.inst      1362488                       # number of demand (read+write) hits
system.cpu0.icache.demand_hits::total         1362488                       # number of demand (read+write) hits
system.cpu0.icache.overall_hits::cpu0.inst      1362488                       # number of overall hits
system.cpu0.icache.overall_hits::total        1362488                       # number of overall hits
system.cpu0.icache.ReadReq_misses::cpu0.inst         1715                       # number of ReadReq misses
system.cpu0.icache.ReadReq_misses::total         1715                       # number of ReadReq misses
system.cpu0.icache.demand_misses::cpu0.inst         1715                       # number of demand (read+write) misses
system.cpu0.icache.demand_misses::total          1715                       # number of demand (read+write) misses
system.cpu0.icache.overall_misses::cpu0.inst         1715                       # number of overall misses
system.cpu0.icache.overall_misses::total         1715                       # number of overall misses
system.cpu0.icache.ReadReq_miss_latency::cpu0.inst    105796762                       # number of ReadReq miss cycles
system.cpu0.icache.ReadReq_miss_latency::total    105796762                       # number of ReadReq miss cycles
system.cpu0.icache.demand_miss_latency::cpu0.inst    105796762                       # number of demand (read+write) miss cycles
system.cpu0.icache.demand_miss_latency::total    105796762                       # number of demand (read+write) miss cycles
system.cpu0.icache.overall_miss_latency::cpu0.inst    105796762                       # number of overall miss cycles
system.cpu0.icache.overall_miss_latency::total    105796762                       # number of overall miss cycles
system.cpu0.icache.ReadReq_accesses::cpu0.inst      1364203                       # number of ReadReq accesses(hits+misses)
system.cpu0.icache.ReadReq_accesses::total      1364203                       # number of ReadReq accesses(hits+misses)
system.cpu0.icache.demand_accesses::cpu0.inst      1364203                       # number of demand (read+write) accesses
system.cpu0.icache.demand_accesses::total      1364203                       # number of demand (read+write) accesses
system.cpu0.icache.overall_accesses::cpu0.inst      1364203                       # number of overall (read+write) accesses
system.cpu0.icache.overall_accesses::total      1364203                       # number of overall (read+write) accesses
system.cpu0.icache.ReadReq_miss_rate::cpu0.inst     0.001257                       # miss rate for ReadReq accesses
system.cpu0.icache.ReadReq_miss_rate::total     0.001257                       # miss rate for ReadReq accesses
system.cpu0.icache.demand_miss_rate::cpu0.inst     0.001257                       # miss rate for demand accesses
system.cpu0.icache.demand_miss_rate::total     0.001257                       # miss rate for demand accesses
system.cpu0.icache.overall_miss_rate::cpu0.inst     0.001257                       # miss rate for overall accesses
system.cpu0.icache.overall_miss_rate::total     0.001257                       # miss rate for overall accesses
system.cpu0.icache.ReadReq_avg_miss_latency::cpu0.inst 61689.074052                       # average ReadReq miss latency
system.cpu0.icache.ReadReq_avg_miss_latency::total 61689.074052                       # average ReadReq miss latency
system.cpu0.icache.demand_avg_miss_latency::cpu0.inst 61689.074052                       # average overall miss latency
system.cpu0.icache.demand_avg_miss_latency::total 61689.074052                       # average overall miss latency
system.cpu0.icache.overall_avg_miss_latency::cpu0.inst 61689.074052                       # average overall miss latency
system.cpu0.icache.overall_avg_miss_latency::total 61689.074052                       # average overall miss latency
system.cpu0.icache.blocked_cycles::no_mshrs         1086                       # number of cycles access was blocked
system.cpu0.icache.blocked_cycles::no_targets            0                       # number of cycles access was blocked
system.cpu0.icache.blocked::no_mshrs               33                       # number of cycles access was blocked
system.cpu0.icache.blocked::no_targets              0                       # number of cycles access was blocked
system.cpu0.icache.avg_blocked_cycles::no_mshrs    32.909091                       # average number of cycles each access was blocked
system.cpu0.icache.avg_blocked_cycles::no_targets          nan                       # average number of cycles each access was blocked
system.cpu0.icache.writebacks::writebacks          863                       # number of writebacks
system.cpu0.icache.writebacks::total              863                       # number of writebacks
system.cpu0.icache.ReadReq_mshr_hits::cpu0.inst          335                       # number of ReadReq MSHR hits
system.cpu0.icache.ReadReq_mshr_hits::total          335                       # number of ReadReq MSHR hits
system.cpu0.icache.demand_mshr_hits::cpu0.inst          335                       # number of demand (read+write) MSHR hits
system.cpu0.icache.demand_mshr_hits::total          335                       # number of demand (read+write) MSHR hits
system.cpu0.icache.overall_mshr_hits::cpu0.inst          335                       # number of overall MSHR hits
system.cpu0.icache.overall_mshr_hits::total          335                       # number of overall MSHR hits
system.cpu0.icache.ReadReq_mshr_misses::cpu0.inst         1380                       # number of ReadReq MSHR misses
system.cpu0.icache.ReadReq_mshr_misses::total         1380                       # number of ReadReq MSHR misses
system.cpu0.icache.demand_mshr_misses::cpu0.inst         1380                       # number of demand (read+write) MSHR misses
system.cpu0.icache.demand_mshr_misses::total         1380                       # number of demand (read+write) MSHR misses
system.cpu0.icache.overall_mshr_misses::cpu0.inst         1380                       # number of overall MSHR misses
system.cpu0.icache.overall_mshr_misses::total         1380                       # number of overall MSHR misses
system.cpu0.icache.ReadReq_mshr_miss_latency::cpu0.inst     86473106                       # number of ReadReq MSHR miss cycles
system.cpu0.icache.ReadReq_mshr_miss_latency::total     86473106                       # number of ReadReq MSHR miss cycles
system.cpu0.icache.demand_mshr_miss_latency::cpu0.inst     86473106                       # number of demand (read+write) MSHR miss cycles
system.cpu0.icache.demand_mshr_miss_latency::total     86473106                       # number of demand (read+write) MSHR miss cycles
system.cpu0.icache.overall_mshr_miss_latency::cpu0.inst     86473106                       # number of overall MSHR miss cycles
system.cpu0.icache.overall_mshr_miss_latency::total     86473106                       # number of overall MSHR miss cycles
system.cpu0.icache.ReadReq_mshr_miss_rate::cpu0.inst     0.001012                       # mshr miss rate for ReadReq accesses
system.cpu0.icache.ReadReq_mshr_miss_rate::total     0.001012                       # mshr miss rate for ReadReq accesses
system.cpu0.icache.demand_mshr_miss_rate::cpu0.inst     0.001012                       # mshr miss rate for demand accesses
system.cpu0.icache.demand_mshr_miss_rate::total     0.001012                       # mshr miss rate for demand accesses
system.cpu0.icache.overall_mshr_miss_rate::cpu0.inst     0.001012                       # mshr miss rate for overall accesses
system.cpu0.icache.overall_mshr_miss_rate::total     0.001012                       # mshr miss rate for overall accesses
system.cpu0.icache.ReadReq_avg_mshr_miss_latency::cpu0.inst 62661.671014                       # average ReadReq mshr miss latency
system.cpu0.icache.ReadReq_avg_mshr_miss_latency::total 62661.671014                       # average ReadReq mshr miss latency
system.cpu0.icache.demand_avg_mshr_miss_latency::cpu0.inst 62661.671014                       # average overall mshr miss latency
system.cpu0.icache.demand_avg_mshr_miss_latency::total 62661.671014                       # average overall mshr miss latency
system.cpu0.icache.overall_avg_mshr_miss_latency::cpu0.inst 62661.671014                       # average overall mshr miss latency
system.cpu0.icache.overall_avg_mshr_miss_latency::total 62661.671014                       # average overall mshr miss latency
system.cpu0.itb_walker_cache.tags.pwrStateResidencyTicks::UNDEFINED  48996884736                       # Cumulative time (in ticks) in various power states
system.cpu0.itb_walker_cache.tags.replacements            0                       # number of replacements
system.cpu0.itb_walker_cache.tags.tagsinuse            0                       # Cycle average of tags in use
system.cpu0.itb_walker_cache.tags.total_refs            0                       # Total number of references to valid blocks.
system.cpu0.itb_walker_cache.tags.sampled_refs            0                       # Sample count of references to valid blocks.
system.cpu0.itb_walker_cache.tags.avg_refs          nan                       # Average number of references to valid blocks.
system.cpu0.itb_walker_cache.tags.warmup_cycle            0                       # Cycle when the warmup percentage was hit.
system.cpu0.itb_walker_cache.tags.tag_accesses            0                       # Number of tag accesses
system.cpu0.itb_walker_cache.tags.data_accesses            0                       # Number of data accesses
system.cpu0.itb_walker_cache.pwrStateResidencyTicks::UNDEFINED  48996884736                       # Cumulative time (in ticks) in various power states
system.cpu0.itb_walker_cache.blocked_cycles::no_mshrs            0                       # number of cycles access was blocked
system.cpu0.itb_walker_cache.blocked_cycles::no_targets            0                       # number of cycles access was blocked
system.cpu0.itb_walker_cache.blocked::no_mshrs            0                       # number of cycles access was blocked
system.cpu0.itb_walker_cache.blocked::no_targets            0                       # number of cycles access was blocked
system.cpu0.itb_walker_cache.avg_blocked_cycles::no_mshrs          nan                       # average number of cycles each access was blocked
system.cpu0.itb_walker_cache.avg_blocked_cycles::no_targets          nan                       # average number of cycles each access was blocked
system.cpu0.l2cache.tags.pwrStateResidencyTicks::UNDEFINED  48996884736                       # Cumulative time (in ticks) in various power states
system.cpu0.l2cache.tags.replacements          476576                       # number of replacements
system.cpu0.l2cache.tags.tagsinuse        4082.921082                       # Cycle average of tags in use
system.cpu0.l2cache.tags.total_refs            604614                       # Total number of references to valid blocks.
system.cpu0.l2cache.tags.sampled_refs          480672                       # Sample count of references to valid blocks.
system.cpu0.l2cache.tags.avg_refs            1.257852                       # Average number of references to valid blocks.
system.cpu0.l2cache.tags.warmup_cycle           78000                       # Cycle when the warmup percentage was hit.
system.cpu0.l2cache.tags.occ_blocks::writebacks     0.733694                       # Average occupied blocks per requestor
system.cpu0.l2cache.tags.occ_blocks::cpu0.inst     5.927230                       # Average occupied blocks per requestor
system.cpu0.l2cache.tags.occ_blocks::cpu0.data  4076.260158                       # Average occupied blocks per requestor
system.cpu0.l2cache.tags.occ_percent::writebacks     0.000179                       # Average percentage of cache occupancy
system.cpu0.l2cache.tags.occ_percent::cpu0.inst     0.001447                       # Average percentage of cache occupancy
system.cpu0.l2cache.tags.occ_percent::cpu0.data     0.995181                       # Average percentage of cache occupancy
system.cpu0.l2cache.tags.occ_percent::total     0.996807                       # Average percentage of cache occupancy
system.cpu0.l2cache.tags.occ_task_id_blocks::1024         4096                       # Occupied blocks per task id
system.cpu0.l2cache.tags.age_task_id_blocks_1024::0           85                       # Occupied blocks per task id
system.cpu0.l2cache.tags.age_task_id_blocks_1024::1          763                       # Occupied blocks per task id
system.cpu0.l2cache.tags.age_task_id_blocks_1024::2         3248                       # Occupied blocks per task id
system.cpu0.l2cache.tags.occ_task_id_percent::1024            1                       # Percentage of cache occupancy per task id
system.cpu0.l2cache.tags.tag_accesses         4821832                       # Number of tag accesses
system.cpu0.l2cache.tags.data_accesses        4821832                       # Number of data accesses
system.cpu0.l2cache.pwrStateResidencyTicks::UNDEFINED  48996884736                       # Cumulative time (in ticks) in various power states
system.cpu0.l2cache.WritebackDirty_hits::writebacks       536115                       # number of WritebackDirty hits
system.cpu0.l2cache.WritebackDirty_hits::total       536115                       # number of WritebackDirty hits
system.cpu0.l2cache.WritebackClean_hits::writebacks          858                       # number of WritebackClean hits
system.cpu0.l2cache.WritebackClean_hits::total          858                       # number of WritebackClean hits
system.cpu0.l2cache.UpgradeReq_hits::cpu0.data            7                       # number of UpgradeReq hits
system.cpu0.l2cache.UpgradeReq_hits::total            7                       # number of UpgradeReq hits
system.cpu0.l2cache.ReadExReq_hits::cpu0.data        53211                       # number of ReadExReq hits
system.cpu0.l2cache.ReadExReq_hits::total        53211                       # number of ReadExReq hits
system.cpu0.l2cache.ReadCleanReq_hits::cpu0.inst          181                       # number of ReadCleanReq hits
system.cpu0.l2cache.ReadCleanReq_hits::total          181                       # number of ReadCleanReq hits
system.cpu0.l2cache.ReadSharedReq_hits::cpu0.data         9229                       # number of ReadSharedReq hits
system.cpu0.l2cache.ReadSharedReq_hits::total         9229                       # number of ReadSharedReq hits
system.cpu0.l2cache.demand_hits::cpu0.inst          181                       # number of demand (read+write) hits
system.cpu0.l2cache.demand_hits::cpu0.data        62440                       # number of demand (read+write) hits
[...]
system.l3.demand_mshr_miss_latency::cpu2.inst     63648619                       # number of demand (read+write) MSHR miss cycles
system.l3.demand_mshr_miss_latency::cpu2.data  37893385232                       # number of demand (read+write) MSHR miss cycles
system.l3.demand_mshr_miss_latency::cpu3.inst     68007215                       # number of demand (read+write) MSHR miss cycles
system.l3.demand_mshr_miss_latency::cpu3.data  38249999057                       # number of demand (read+write) MSHR miss cycles
system.l3.demand_mshr_miss_latency::total 152653576060                       # number of demand (read+write) MSHR miss cycles
system.l3.overall_mshr_miss_latency::cpu0.inst     67770769                       # number of overall MSHR miss cycles
system.l3.overall_mshr_miss_latency::cpu0.data  37892149731                       # number of overall MSHR miss cycles
system.l3.overall_mshr_miss_latency::cpu1.inst     66010884                       # number of overall MSHR miss cycles
system.l3.overall_mshr_miss_latency::cpu1.data  38352604553                       # number of overall MSHR miss cycles
system.l3.overall_mshr_miss_latency::cpu2.inst     63648619                       # number of overall MSHR miss cycles
system.l3.overall_mshr_miss_latency::cpu2.data  37893385232                       # number of overall MSHR miss cycles
system.l3.overall_mshr_miss_latency::cpu3.inst     68007215                       # number of overall MSHR miss cycles
system.l3.overall_mshr_miss_latency::cpu3.data  38249999057                       # number of overall MSHR miss cycles
system.l3.overall_mshr_miss_latency::total 152653576060                       # number of overall MSHR miss cycles
system.l3.CleanEvict_mshr_miss_rate::writebacks          inf                       # mshr miss rate for CleanEvict accesses
system.l3.CleanEvict_mshr_miss_rate::total          inf                       # mshr miss rate for CleanEvict accesses
system.l3.ReadExReq_mshr_miss_rate::cpu0.data     0.999382                       # mshr miss rate for ReadExReq accesses
system.l3.ReadExReq_mshr_miss_rate::cpu1.data     0.999382                       # mshr miss rate for ReadExReq accesses
system.l3.ReadExReq_mshr_miss_rate::cpu2.data     0.999384                       # mshr miss rate for ReadExReq accesses
system.l3.ReadExReq_mshr_miss_rate::cpu3.data     0.999377                       # mshr miss rate for ReadExReq accesses
system.l3.ReadExReq_mshr_miss_rate::total     0.999381                       # mshr miss rate for ReadExReq accesses
system.l3.ReadSharedReq_mshr_miss_rate::cpu0.inst            1                       # mshr miss rate for ReadSharedReq accesses
system.l3.ReadSharedReq_mshr_miss_rate::cpu0.data     0.054096                       # mshr miss rate for ReadSharedReq accesses
system.l3.ReadSharedReq_mshr_miss_rate::cpu1.inst            1                       # mshr miss rate for ReadSharedReq accesses
system.l3.ReadSharedReq_mshr_miss_rate::cpu1.data     0.675497                       # mshr miss rate for ReadSharedReq accesses
system.l3.ReadSharedReq_mshr_miss_rate::cpu2.inst            1                       # mshr miss rate for ReadSharedReq accesses
system.l3.ReadSharedReq_mshr_miss_rate::cpu2.data     0.052345                       # mshr miss rate for ReadSharedReq accesses
system.l3.ReadSharedReq_mshr_miss_rate::cpu3.inst            1                       # mshr miss rate for ReadSharedReq accesses
system.l3.ReadSharedReq_mshr_miss_rate::cpu3.data     0.192837                       # mshr miss rate for ReadSharedReq accesses
system.l3.ReadSharedReq_mshr_miss_rate::total     0.402471                       # mshr miss rate for ReadSharedReq accesses
system.l3.demand_mshr_miss_rate::cpu0.inst            1                       # mshr miss rate for demand accesses
system.l3.demand_mshr_miss_rate::cpu0.data     0.991799                       # mshr miss rate for demand accesses
system.l3.demand_mshr_miss_rate::cpu1.inst            1                       # mshr miss rate for demand accesses
system.l3.demand_mshr_miss_rate::cpu1.data     0.999176                       # mshr miss rate for demand accesses
system.l3.demand_mshr_miss_rate::cpu2.inst            1                       # mshr miss rate for demand accesses
system.l3.demand_mshr_miss_rate::cpu2.data     0.991760                       # mshr miss rate for demand accesses
system.l3.demand_mshr_miss_rate::cpu3.inst            1                       # mshr miss rate for demand accesses
system.l3.demand_mshr_miss_rate::cpu3.data     0.997535                       # mshr miss rate for demand accesses
system.l3.demand_mshr_miss_rate::total       0.995068                       # mshr miss rate for demand accesses
system.l3.overall_mshr_miss_rate::cpu0.inst            1                       # mshr miss rate for overall accesses
system.l3.overall_mshr_miss_rate::cpu0.data     0.991799                       # mshr miss rate for overall accesses
system.l3.overall_mshr_miss_rate::cpu1.inst            1                       # mshr miss rate for overall accesses
system.l3.overall_mshr_miss_rate::cpu1.data     0.999176                       # mshr miss rate for overall accesses
system.l3.overall_mshr_miss_rate::cpu2.inst            1                       # mshr miss rate for overall accesses
system.l3.overall_mshr_miss_rate::cpu2.data     0.991760                       # mshr miss rate for overall accesses
system.l3.overall_mshr_miss_rate::cpu3.inst            1                       # mshr miss rate for overall accesses
system.l3.overall_mshr_miss_rate::cpu3.data     0.997535                       # mshr miss rate for overall accesses
system.l3.overall_mshr_miss_rate::total      0.995068                       # mshr miss rate for overall accesses
system.l3.ReadExReq_avg_mshr_miss_latency::cpu0.data 79711.410453                       # average ReadExReq mshr miss latency
system.l3.ReadExReq_avg_mshr_miss_latency::cpu1.data 80679.089886                       # average ReadExReq mshr miss latency
system.l3.ReadExReq_avg_mshr_miss_latency::cpu2.data 79710.099274                       # average ReadExReq mshr miss latency
system.l3.ReadExReq_avg_mshr_miss_latency::cpu3.data 80461.264530                       # average ReadExReq mshr miss latency
system.l3.ReadExReq_avg_mshr_miss_latency::total 80140.465132                       # average ReadExReq mshr miss latency
system.l3.ReadSharedReq_avg_mshr_miss_latency::cpu0.inst 56759.438023                       # average ReadSharedReq mshr miss latency
system.l3.ReadSharedReq_avg_mshr_miss_latency::cpu0.data 62349.221154                       # average ReadSharedReq mshr miss latency
system.l3.ReadSharedReq_avg_mshr_miss_latency::cpu1.inst 55611.528222                       # average ReadSharedReq mshr miss latency
system.l3.ReadSharedReq_avg_mshr_miss_latency::cpu1.data 67746.862745                       # average ReadSharedReq mshr miss latency
system.l3.ReadSharedReq_avg_mshr_miss_latency::cpu2.inst 54261.397272                       # average ReadSharedReq mshr miss latency
system.l3.ReadSharedReq_avg_mshr_miss_latency::cpu2.data 74191.272277                       # average ReadSharedReq mshr miss latency
system.l3.ReadSharedReq_avg_mshr_miss_latency::cpu3.inst 57005.209556                       # average ReadSharedReq mshr miss latency
system.l3.ReadSharedReq_avg_mshr_miss_latency::cpu3.data 70122.338095                       # average ReadSharedReq mshr miss latency
system.l3.ReadSharedReq_avg_mshr_miss_latency::total 57788.334769                       # average ReadSharedReq mshr miss latency
system.l3.demand_avg_mshr_miss_latency::cpu0.inst 56759.438023                       # average overall mshr miss latency
system.l3.demand_avg_mshr_miss_latency::cpu0.data 79703.814231                       # average overall mshr miss latency
system.l3.demand_avg_mshr_miss_latency::cpu1.inst 55611.528222                       # average overall mshr miss latency
system.l3.demand_avg_mshr_miss_latency::cpu1.data 80673.540566                       # average overall mshr miss latency
system.l3.demand_avg_mshr_miss_latency::cpu2.inst 54261.397272                       # average overall mshr miss latency
system.l3.demand_avg_mshr_miss_latency::cpu2.data 79707.754314                       # average overall mshr miss latency
system.l3.demand_avg_mshr_miss_latency::cpu3.inst 57005.209556                       # average overall mshr miss latency
system.l3.demand_avg_mshr_miss_latency::cpu3.data 80456.697588                       # average overall mshr miss latency
system.l3.demand_avg_mshr_miss_latency::total 80075.145635                       # average overall mshr miss latency
system.l3.overall_avg_mshr_miss_latency::cpu0.inst 56759.438023                       # average overall mshr miss latency
system.l3.overall_avg_mshr_miss_latency::cpu0.data 79703.814231                       # average overall mshr miss latency
system.l3.overall_avg_mshr_miss_latency::cpu1.inst 55611.528222                       # average overall mshr miss latency
system.l3.overall_avg_mshr_miss_latency::cpu1.data 80673.540566                       # average overall mshr miss latency
system.l3.overall_avg_mshr_miss_latency::cpu2.inst 54261.397272                       # average overall mshr miss latency
system.l3.overall_avg_mshr_miss_latency::cpu2.data 79707.754314                       # average overall mshr miss latency
system.l3.overall_avg_mshr_miss_latency::cpu3.inst 57005.209556                       # average overall mshr miss latency
system.l3.overall_avg_mshr_miss_latency::cpu3.data 80456.697588                       # average overall mshr miss latency
system.l3.overall_avg_mshr_miss_latency::total 80075.145635                       # average overall mshr miss latency
system.membus.snoop_filter.tot_requests       3679748                       # Total number of requests made to the snoop filter.
system.membus.snoop_filter.hit_single_requests      1773369                       # Number of requests hitting in the snoop filter with a single holder of the requested data.
system.membus.snoop_filter.hit_multi_requests            0                       # Number of requests hitting in the snoop filter with multiple (>1) holders of the requested data.
system.membus.snoop_filter.tot_snoops               0                       # Total number of snoops made to the snoop filter.
system.membus.snoop_filter.hit_single_snoops            0                       # Number of snoops hitting in the snoop filter with a single holder of the requested data.
system.membus.snoop_filter.hit_multi_snoops            0                       # Number of snoops hitting in the snoop filter with multiple (>1) holders of the requested data.
system.membus.pwrStateResidencyTicks::UNDEFINED  48996884736                       # Cumulative time (in ticks) in various power states
system.membus.trans_dist::ReadResp               5571                       # Transaction distribution
system.membus.trans_dist::WritebackDirty      1770256                       # Transaction distribution
system.membus.trans_dist::CleanEvict             3113                       # Transaction distribution
system.membus.trans_dist::ReadExReq           1900808                       # Transaction distribution
system.membus.trans_dist::ReadExResp          1900808                       # Transaction distribution
system.membus.trans_dist::ReadSharedReq          5571                       # Transaction distribution
system.membus.pkt_count_system.l3.mem_side::system.mem_ctrls.port      5586127                       # Packet count per connected master and slave (bytes)
system.membus.pkt_count_system.l3.mem_side::total      5586127                       # Packet count per connected master and slave (bytes)
system.membus.pkt_count::total                5586127                       # Packet count per connected master and slave (bytes)
system.membus.pkt_size_system.l3.mem_side::system.mem_ctrls.port    235304640                       # Cumulative packet size per connected master and slave (bytes)
system.membus.pkt_size_system.l3.mem_side::total    235304640                       # Cumulative packet size per connected master and slave (bytes)
system.membus.pkt_size::total               235304640                       # Cumulative packet size per connected master and slave (bytes)
system.membus.snoops                                0                       # Total snoops (count)
system.membus.snoopTraffic                          0                       # Total snoop traffic (bytes)
system.membus.snoop_fanout::samples           1906379                       # Request fanout histogram
system.membus.snoop_fanout::mean                    0                       # Request fanout histogram
system.membus.snoop_fanout::stdev                   0                       # Request fanout histogram
system.membus.snoop_fanout::underflows              0      0.00%      0.00% # Request fanout histogram
system.membus.snoop_fanout::0                 1906379    100.00%    100.00% # Request fanout histogram
system.membus.snoop_fanout::1                       0      0.00%    100.00% # Request fanout histogram
system.membus.snoop_fanout::overflows               0      0.00%    100.00% # Request fanout histogram
system.membus.snoop_fanout::min_value               0                       # Request fanout histogram
system.membus.snoop_fanout::max_value               0                       # Request fanout histogram
system.membus.snoop_fanout::total             1906379                       # Request fanout histogram
system.membus.reqLayer8.occupancy         11407767081                       # Layer occupancy (ticks)
system.membus.reqLayer8.utilization              23.3                       # Layer utilization (%)
system.membus.respLayer1.occupancy        10073378146                       # Layer occupancy (ticks)
system.membus.respLayer1.utilization             20.6                       # Layer utilization (%)
system.tol3bus.snoop_filter.tot_requests      3813303                       # Total number of requests made to the snoop filter.
system.tol3bus.snoop_filter.hit_single_requests      1897476                       # Number of requests hitting in the snoop filter with a single holder of the requested data.
system.tol3bus.snoop_filter.hit_multi_requests            0                       # Number of requests hitting in the snoop filter with multiple (>1) holders of the requested data.
system.tol3bus.snoop_filter.tot_snoops           2095                       # Total number of snoops made to the snoop filter.
system.tol3bus.snoop_filter.hit_single_snoops         2095                       # Number of snoops hitting in the snoop filter with a single holder of the requested data.
system.tol3bus.snoop_filter.hit_multi_snoops            0                       # Number of snoops hitting in the snoop filter with multiple (>1) holders of the requested data.
system.tol3bus.pwrStateResidencyTicks::UNDEFINED  48996884736                       # Cumulative time (in ticks) in various power states
system.tol3bus.trans_dist::ReadResp             13842                       # Transaction distribution
system.tol3bus.trans_dist::WritebackDirty      3664567                       # Transaction distribution
system.tol3bus.trans_dist::CleanEvict            8243                       # Transaction distribution
system.tol3bus.trans_dist::ReadExReq          1901985                       # Transaction distribution
system.tol3bus.trans_dist::ReadExResp         1901985                       # Transaction distribution
system.tol3bus.trans_dist::ReadSharedReq        13842                       # Transaction distribution
system.tol3bus.pkt_count_system.cpu0.l2cache.mem_side::system.l3.cpu_side      1436975                       # Packet count per connected master and slave (bytes)
system.tol3bus.pkt_count_system.cpu1.l2cache.mem_side::system.l3.cpu_side      1426403                       # Packet count per connected master and slave (bytes)
system.tol3bus.pkt_count_system.cpu2.l2cache.mem_side::system.l3.cpu_side      1436960                       # Packet count per connected master and slave (bytes)
system.tol3bus.pkt_count_system.cpu3.l2cache.mem_side::system.l3.cpu_side      1428792                       # Packet count per connected master and slave (bytes)
system.tol3bus.pkt_count::total               5729130                       # Packet count per connected master and slave (bytes)
system.tol3bus.pkt_size_system.cpu0.l2cache.mem_side::system.l3.cpu_side     61158656                       # Cumulative packet size per connected master and slave (bytes)
system.tol3bus.pkt_size_system.cpu1.l2cache.mem_side::system.l3.cpu_side     60714368                       # Cumulative packet size per connected master and slave (bytes)
system.tol3bus.pkt_size_system.cpu2.l2cache.mem_side::system.l3.cpu_side     61159936                       # Cumulative packet size per connected master and slave (bytes)
system.tol3bus.pkt_size_system.cpu3.l2cache.mem_side::system.l3.cpu_side     60815872                       # Cumulative packet size per connected master and slave (bytes)
system.tol3bus.pkt_size::total              243848832                       # Cumulative packet size per connected master and slave (bytes)
system.tol3bus.snoops                         1775334                       # Total snoops (count)
system.tol3bus.snoopTraffic                 113296384                       # Total snoop traffic (bytes)
system.tol3bus.snoop_fanout::samples          3691161                       # Request fanout histogram
system.tol3bus.snoop_fanout::mean            0.000568                       # Request fanout histogram
system.tol3bus.snoop_fanout::stdev           0.023817                       # Request fanout histogram
system.tol3bus.snoop_fanout::underflows             0      0.00%      0.00% # Request fanout histogram
system.tol3bus.snoop_fanout::0                3689066     99.94%     99.94% # Request fanout histogram
system.tol3bus.snoop_fanout::1                   2095      0.06%    100.00% # Request fanout histogram
system.tol3bus.snoop_fanout::2                      0      0.00%    100.00% # Request fanout histogram
system.tol3bus.snoop_fanout::3                      0      0.00%    100.00% # Request fanout histogram
system.tol3bus.snoop_fanout::4                      0      0.00%    100.00% # Request fanout histogram
system.tol3bus.snoop_fanout::overflows              0      0.00%    100.00% # Request fanout histogram
system.tol3bus.snoop_fanout::min_value              0                       # Request fanout histogram
system.tol3bus.snoop_fanout::max_value              1                       # Request fanout histogram
system.tol3bus.snoop_fanout::total            3691161                       # Request fanout histogram
system.tol3bus.reqLayer0.occupancy         8255468935                       # Layer occupancy (ticks)
system.tol3bus.reqLayer0.utilization             16.8                       # Layer utilization (%)
system.tol3bus.respLayer0.occupancy        1525753494                       # Layer occupancy (ticks)
system.tol3bus.respLayer0.utilization             3.1                       # Layer utilization (%)
system.tol3bus.respLayer1.occupancy        1513992033                       # Layer occupancy (ticks)
system.tol3bus.respLayer1.utilization             3.1                       # Layer utilization (%)
system.tol3bus.respLayer2.occupancy        1525751279                       # Layer occupancy (ticks)
system.tol3bus.respLayer2.utilization             3.1                       # Layer utilization (%)
system.tol3bus.respLayer3.occupancy        1516678252                       # Layer occupancy (ticks)
system.tol3bus.respLayer3.utilization             3.1                       # Layer utilization (%)

---------- End Simulation Statistics   ----------
