
---------- Begin Simulation Statistics ----------
sim_seconds                                  0.004381                       # Number of seconds simulated
sim_ticks                                  4380643971                       # Number of ticks simulated
final_tick                                 4380643971                       # Number of ticks from beginning of simulation (restored from checkpoints and never reset)
sim_freq                                 1000000000000                       # Frequency of simulated ticks
host_inst_rate                                 102338                       # Simulator instruction rate (inst/s)
host_op_rate                                   203634                       # Simulator op (including micro ops) rate (op/s)
host_tick_rate                               11267308                       # Simulator tick rate (ticks/s)
host_mem_usage                               33897716                       # Number of bytes of host memory used
host_seconds                                   388.79                       # Real time elapsed on the host
sim_insts                                    39788261                       # Number of instructions simulated
sim_ops                                      79171393                       # Number of ops (including micro ops) simulated
system.voltage_domain.voltage                       1                       # Voltage in Volts
system.clk_domain.clock                          1000                       # Clock period in ticks
system.mem_ctrls.pwrStateResidencyTicks::UNDEFINED   4380643971                       # Cumulative time (in ticks) in various power states
system.mem_ctrls.bytes_read::cpu0.inst         143744                       # Number of bytes read from this memory
system.mem_ctrls.bytes_read::cpu0.data          64000                       # Number of bytes read from this memory
system.mem_ctrls.bytes_read::cpu1.inst         143168                       # Number of bytes read from this memory
system.mem_ctrls.bytes_read::cpu1.data          64064                       # Number of bytes read from this memory
system.mem_ctrls.bytes_read::cpu2.inst         143168                       # Number of bytes read from this memory
system.mem_ctrls.bytes_read::cpu2.data          64384                       # Number of bytes read from this memory
system.mem_ctrls.bytes_read::cpu3.inst         144192                       # Number of bytes read from this memory
system.mem_ctrls.bytes_read::cpu3.data          64256                       # Number of bytes read from this memory
system.mem_ctrls.bytes_read::total             830976                       # Number of bytes read from this memory
system.mem_ctrls.bytes_inst_read::cpu0.inst       143744                       # Number of instructions bytes read from this memory
system.mem_ctrls.bytes_inst_read::cpu1.inst       143168                       # Number of instructions bytes read from this memory
system.mem_ctrls.bytes_inst_read::cpu2.inst       143168                       # Number of instructions bytes read from this memory
system.mem_ctrls.bytes_inst_read::cpu3.inst       144192                       # Number of instructions bytes read from this memory
system.mem_ctrls.bytes_inst_read::total        574272                       # Number of instructions bytes read from this memory
system.mem_ctrls.num_reads::cpu0.inst            2246                       # Number of read requests responded to by this memory
system.mem_ctrls.num_reads::cpu0.data            1000                       # Number of read requests responded to by this memory
system.mem_ctrls.num_reads::cpu1.inst            2237                       # Number of read requests responded to by this memory
system.mem_ctrls.num_reads::cpu1.data            1001                       # Number of read requests responded to by this memory
system.mem_ctrls.num_reads::cpu2.inst            2237                       # Number of read requests responded to by this memory
system.mem_ctrls.num_reads::cpu2.data            1006                       # Number of read requests responded to by this memory
system.mem_ctrls.num_reads::cpu3.inst            2253                       # Number of read requests responded to by this memory
system.mem_ctrls.num_reads::cpu3.data            1004                       # Number of read requests responded to by this memory
system.mem_ctrls.num_reads::total               12984                       # Number of read requests responded to by this memory
system.mem_ctrls.bw_read::cpu0.inst          32813440                       # Total read bandwidth from this memory (bytes/s)
system.mem_ctrls.bw_read::cpu0.data          14609724                       # Total read bandwidth from this memory (bytes/s)
system.mem_ctrls.bw_read::cpu1.inst          32681953                       # Total read bandwidth from this memory (bytes/s)
system.mem_ctrls.bw_read::cpu1.data          14624334                       # Total read bandwidth from this memory (bytes/s)
system.mem_ctrls.bw_read::cpu2.inst          32681953                       # Total read bandwidth from this memory (bytes/s)
system.mem_ctrls.bw_read::cpu2.data          14697382                       # Total read bandwidth from this memory (bytes/s)
system.mem_ctrls.bw_read::cpu3.inst          32915709                       # Total read bandwidth from this memory (bytes/s)
system.mem_ctrls.bw_read::cpu3.data          14668163                       # Total read bandwidth from this memory (bytes/s)
system.mem_ctrls.bw_read::total             189692658                       # Total read bandwidth from this memory (bytes/s)
system.mem_ctrls.bw_inst_read::cpu0.inst     32813440                       # Instruction read bandwidth from this memory (bytes/s)
system.mem_ctrls.bw_inst_read::cpu1.inst     32681953                       # Instruction read bandwidth from this memory (bytes/s)
system.mem_ctrls.bw_inst_read::cpu2.inst     32681953                       # Instruction read bandwidth from this memory (bytes/s)
system.mem_ctrls.bw_inst_read::cpu3.inst     32915709                       # Instruction read bandwidth from this memory (bytes/s)
system.mem_ctrls.bw_inst_read::total        131093055                       # Instruction read bandwidth from this memory (bytes/s)
system.mem_ctrls.bw_total::cpu0.inst         32813440                       # Total bandwidth to/from this memory (bytes/s)
system.mem_ctrls.bw_total::cpu0.data         14609724                       # Total bandwidth to/from this memory (bytes/s)
system.mem_ctrls.bw_total::cpu1.inst         32681953                       # Total bandwidth to/from this memory (bytes/s)
system.mem_ctrls.bw_total::cpu1.data         14624334                       # Total bandwidth to/from this memory (bytes/s)
system.mem_ctrls.bw_total::cpu2.inst         32681953                       # Total bandwidth to/from this memory (bytes/s)
system.mem_ctrls.bw_total::cpu2.data         14697382                       # Total bandwidth to/from this memory (bytes/s)
system.mem_ctrls.bw_total::cpu3.inst         32915709                       # Total bandwidth to/from this memory (bytes/s)
system.mem_ctrls.bw_total::cpu3.data         14668163                       # Total bandwidth to/from this memory (bytes/s)
system.mem_ctrls.bw_total::total            189692658                       # Total bandwidth to/from this memory (bytes/s)
system.pwrStateResidencyTicks::UNDEFINED   4380643971                       # Cumulative time (in ticks) in various power states
system.cpu0.branchPred.lookups                5987796                       # Number of BP lookups
system.cpu0.branchPred.condPredicted          5987796                       # Number of conditional branches predicted
system.cpu0.branchPred.condIncorrect           634218                       # Number of conditional branches incorrect
system.cpu0.branchPred.BTBLookups             5191675                       # Number of BTB lookups
system.cpu0.branchPred.BTBHits                      0                       # Number of BTB hits
system.cpu0.branchPred.BTBCorrect                   0                       # Number of correct BTB predictions (this stat may not work properly.
system.cpu0.branchPred.BTBHitPct             0.000000                       # BTB Hit Percentage
system.cpu0.branchPred.usedRAS                 507497                       # Number of times the RAS was used to get a target.
system.cpu0.branchPred.RASInCorrect            109821                       # Number of incorrect RAS predictions.
system.cpu0.branchPred.indirectLookups        5191675                       # Number of indirect predictor lookups.
system.cpu0.branchPred.indirectHits           1185576                       # Number of indirect target hits.
system.cpu0.branchPred.indirectMisses         4006099                       # Number of indirect misses.
system.cpu0.branchPredindirectMispredicted       473265                       # Number of mispredicted indirect branches.
system.cpu_voltage_domain.voltage                   1                       # Voltage in Volts
system.cpu_clk_domain.clock                       333                       # Clock period in ticks
system.cpu0.dtb.walker.pwrStateResidencyTicks::UNDEFINED   4380643971                       # Cumulative time (in ticks) in various power states
system.cpu0.dtb.rdAccesses                    3327717                       # TLB accesses on read requests
system.cpu0.dtb.wrAccesses                    2253176                       # TLB accesses on write requests
system.cpu0.dtb.rdMisses                        74422                       # TLB misses on read requests
system.cpu0.dtb.wrMisses                        25425                       # TLB misses on write requests
system.cpu0.apic_clk_domain.clock                5328                       # Clock period in ticks
system.cpu0.interrupts.pwrStateResidencyTicks::UNDEFINED   4380643971                       # Cumulative time (in ticks) in various power states
system.cpu0.itb.walker.pwrStateResidencyTicks::UNDEFINED   4380643971                       # Cumulative time (in ticks) in various power states
system.cpu0.itb.rdAccesses                          0                       # TLB accesses on read requests
system.cpu0.itb.wrAccesses                    3303541                       # TLB accesses on write requests
system.cpu0.itb.rdMisses                            0                       # TLB misses on read requests
system.cpu0.itb.wrMisses                         8902                       # TLB misses on write requests
system.cpu0.workload.numSyscalls                   47                       # Number of system calls
system.cpu0.pwrStateResidencyTicks::ON     4380643971                       # Cumulative time (in ticks) in various power states
system.cpu0.numCycles                        13155088                       # number of cpu cycles simulated
system.cpu0.numWorkItemsStarted                     0                       # number of work items this cpu started
system.cpu0.numWorkItemsCompleted                   0                       # number of work items this cpu completed
system.cpu0.fetch.icacheStallCycles           4513854                       # Number of cycles fetch is stalled on an Icache miss
system.cpu0.fetch.Insts                      23641666                       # Number of instructions fetch has processed
system.cpu0.fetch.Branches                    5987796                       # Number of branches that fetch encountered
system.cpu0.fetch.predictedBranches           1693073                       # Number of branches that fetch has predicted taken
system.cpu0.fetch.Cycles                      7790575                       # Number of cycles fetch has run and was not squashing or blocked
system.cpu0.fetch.SquashCycles                1274908                       # Number of cycles fetch has spent squashing
system.cpu0.fetch.TlbCycles                        13                       # Number of cycles fetch has spent waiting for tlb
system.cpu0.fetch.MiscStallCycles                3682                       # Number of cycles fetch has spent waiting on interrupts, or bad addresses, or out of MSHRs
system.cpu0.fetch.PendingTrapStallCycles        36434                       # Number of stall cycles due to pending traps
system.cpu0.fetch.PendingQuiesceStallCycles            7                       # Number of stall cycles due to pending quiesce instructions
system.cpu0.fetch.IcacheWaitRetryStallCycles          134                       # Number of stall cycles due to full MSHR
system.cpu0.fetch.CacheLines                  3294862                       # Number of cache lines fetched
system.cpu0.fetch.IcacheSquashes               206468                       # Number of outstanding Icache misses that were squashed
system.cpu0.fetch.rateDist::samples          12982153                       # Number of instructions fetched each cycle (Total)
system.cpu0.fetch.rateDist::mean             3.621845                       # Number of instructions fetched each cycle (Total)
system.cpu0.fetch.rateDist::stdev            3.647067                       # Number of instructions fetched each cycle (Total)
system.cpu0.fetch.rateDist::underflows              0      0.00%      0.00% # Number of instructions fetched each cycle (Total)
system.cpu0.fetch.rateDist::0                 5744344     44.25%     44.25% # Number of instructions fetched each cycle (Total)
system.cpu0.fetch.rateDist::1                  361271      2.78%     47.03% # Number of instructions fetched each cycle (Total)
system.cpu0.fetch.rateDist::2                  379787      2.93%     49.96% # Number of instructions fetched each cycle (Total)
system.cpu0.fetch.rateDist::3                  443821      3.42%     53.37% # Number of instructions fetched each cycle (Total)
system.cpu0.fetch.rateDist::4                  361032      2.78%     56.16% # Number of instructions fetched each cycle (Total)
system.cpu0.fetch.rateDist::5                  400260      3.08%     59.24% # Number of instructions fetched each cycle (Total)
system.cpu0.fetch.rateDist::6                  411731      3.17%     62.41% # Number of instructions fetched each cycle (Total)
system.cpu0.fetch.rateDist::7                  388033      2.99%     65.40% # Number of instructions fetched each cycle (Total)
system.cpu0.fetch.rateDist::8                 4491874     34.60%    100.00% # Number of instructions fetched each cycle (Total)
system.cpu0.fetch.rateDist::overflows               0      0.00%    100.00% # Number of instructions fetched each cycle (Total)
system.cpu0.fetch.rateDist::min_value               0                       # Number of instructions fetched each cycle (Total)
system.cpu0.fetch.rateDist::max_value               8                       # Number of instructions fetched each cycle (Total)
system.cpu0.fetch.rateDist::total            12982153                       # Number of instructions fetched each cycle (Total)
system.cpu0.fetch.branchRate                 0.455170                       # Number of branch fetches per cycle
system.cpu0.fetch.rate                       1.797150                       # Number of inst fetches per cycle
system.cpu0.decode.IdleCycles                 3830297                       # Number of cycles decode is idle
system.cpu0.decode.BlockedCycles              2178463                       # Number of cycles decode is blocked
system.cpu0.decode.RunCycles                  5833688                       # Number of cycles decode is running
system.cpu0.decode.UnblockCycles               502251                       # Number of cycles decode is unblocking
system.cpu0.decode.SquashCycles                637454                       # Number of cycles decode is squashing
system.cpu0.decode.DecodedInsts              43419378                       # Number of instructions handled by decode
system.cpu0.rename.SquashCycles                637454                       # Number of cycles rename is squashing
system.cpu0.rename.IdleCycles                 4218407                       # Number of cycles rename is idle
system.cpu0.rename.BlockCycles                1844984                       # Number of cycles rename is blocking
system.cpu0.rename.serializeStallCycles         23701                       # count of cycles rename stalled for serializing inst
system.cpu0.rename.RunCycles                  5896912                       # Number of cycles rename is running
system.cpu0.rename.UnblockCycles               360695                       # Number of cycles rename is unblocking
system.cpu0.rename.RenamedInsts              40649157                       # Number of instructions processed by rename
system.cpu0.rename.ROBFullEvents                  497                       # Number of times rename has blocked due to ROB full
system.cpu0.rename.IQFullEvents                 85363                       # Number of times rename has blocked due to IQ full
system.cpu0.rename.LQFullEvents                   132                       # Number of times rename has blocked due to LQ full
system.cpu0.rename.SQFullEvents                246459                       # Number of times rename has blocked due to SQ full
system.cpu0.rename.RenamedOperands           43511713                       # Number of destination operands rename has renamed
system.cpu0.rename.RenameLookups             97993158                       # Number of register rename lookups that rename has made
system.cpu0.rename.int_rename_lookups        57531406                       # Number of integer rename lookups
system.cpu0.rename.fp_rename_lookups           573421                       # Number of floating rename lookups
system.cpu0.rename.CommittedMaps             22057936                       # Number of HB maps that are committed
system.cpu0.rename.UndoneMaps                21453742                       # Number of HB maps that are undone due to squashing
system.cpu0.rename.serializingInsts              5174                       # count of serializing insts renamed
system.cpu0.rename.tempSerializingInsts          5817                       # count of temporary serializing insts renamed
system.cpu0.rename.skidInsts                   608988                       # count of insts added to the skid buffer
system.cpu0.memDep0.insertedLoads             4257758                       # Number of loads inserted to the mem dependence unit.
system.cpu0.memDep0.insertedStores            2991882                       # Number of stores inserted to the mem dependence unit.
system.cpu0.memDep0.conflictingLoads           145520                       # Number of conflicting loads.
system.cpu0.memDep0.conflictingStores          104643                       # Number of conflicting stores.
system.cpu0.iq.iqInstsAdded                  35014795                       # Number of instructions added to the IQ (excludes non-spec)
system.cpu0.iq.iqNonSpecInstsAdded              92174                       # Number of non-speculative instructions added to the IQ
system.cpu0.iq.iqInstsIssued                 30262734                       # Number of instructions issued
system.cpu0.iq.iqSquashedInstsIssued           236341                       # Number of squashed instructions issued
system.cpu0.iq.iqSquashedInstsExamined       15300741                       # Number of squashed instructions iterated over during squash; mainly for profiling
system.cpu0.iq.iqSquashedOperandsExamined     20897843                       # Number of squashed operands that are examined and possibly removed from graph
system.cpu0.iq.iqSquashedNonSpecRemoved         62019                       # Number of squashed non-spec instructions that were removed
system.cpu0.iq.issued_per_cycle::samples     12982153                       # Number of insts issued each cycle
system.cpu0.iq.issued_per_cycle::mean        2.331103                       # Number of insts issued each cycle
system.cpu0.iq.issued_per_cycle::stdev       2.622641                       # Number of insts issued each cycle
system.cpu0.iq.issued_per_cycle::underflows            0      0.00%      0.00% # Number of insts issued each cycle
system.cpu0.iq.issued_per_cycle::0            5758968     44.36%     44.36% # Number of insts issued each cycle
system.cpu0.iq.issued_per_cycle::1            1033309      7.96%     52.32% # Number of insts issued each cycle
system.cpu0.iq.issued_per_cycle::2             921390      7.10%     59.42% # Number of insts issued each cycle
system.cpu0.iq.issued_per_cycle::3             932626      7.18%     66.60% # Number of insts issued each cycle
system.cpu0.iq.issued_per_cycle::4            1056000      8.13%     74.74% # Number of insts issued each cycle
system.cpu0.iq.issued_per_cycle::5             976930      7.53%     82.26% # Number of insts issued each cycle
system.cpu0.iq.issued_per_cycle::6            1085290      8.36%     90.62% # Number of insts issued each cycle
system.cpu0.iq.issued_per_cycle::7             772743      5.95%     96.57% # Number of insts issued each cycle
system.cpu0.iq.issued_per_cycle::8             444897      3.43%    100.00% # Number of insts issued each cycle
system.cpu0.iq.issued_per_cycle::overflows            0      0.00%    100.00% # Number of insts issued each cycle
system.cpu0.iq.issued_per_cycle::min_value            0                       # Number of insts issued each cycle
system.cpu0.iq.issued_per_cycle::max_value            8                       # Number of insts issued each cycle
system.cpu0.iq.issued_per_cycle::total       12982153                       # Number of insts issued each cycle
system.cpu0.iq.fu_full::No_OpClass                  0      0.00%      0.00% # attempts to use FU when none available
system.cpu0.iq.fu_full::IntAlu                 536688     85.12%     85.12% # attempts to use FU when none available
system.cpu0.iq.fu_full::IntMult                     0      0.00%     85.12% # attempts to use FU when none available
system.cpu0.iq.fu_full::IntDiv                      0      0.00%     85.12% # attempts to use FU when none available
system.cpu0.iq.fu_full::FloatAdd                   72      0.01%     85.13% # attempts to use FU when none available
system.cpu0.iq.fu_full::FloatCmp                    0      0.00%     85.13% # attempts to use FU when none available
system.cpu0.iq.fu_full::FloatCvt                    0      0.00%     85.13% # attempts to use FU when none available
system.cpu0.iq.fu_full::FloatMult                   0      0.00%     85.13% # attempts to use FU when none available
system.cpu0.iq.fu_full::FloatMultAcc                0      0.00%     85.13% # attempts to use FU when none available
system.cpu0.iq.fu_full::FloatDiv                    0      0.00%     85.13% # attempts to use FU when none available
system.cpu0.iq.fu_full::FloatMisc                   0      0.00%     85.13% # attempts to use FU when none available
system.cpu0.iq.fu_full::FloatSqrt                   0      0.00%     85.13% # attempts to use FU when none available
system.cpu0.iq.fu_full::SimdAdd                     0      0.00%     85.13% # attempts to use FU when none available
system.cpu0.iq.fu_full::SimdAddAcc                  0      0.00%     85.13% # attempts to use FU when none available
system.cpu0.iq.fu_full::SimdAlu                     0      0.00%     85.13% # attempts to use FU when none available
system.cpu0.iq.fu_full::SimdCmp                     0      0.00%     85.13% # attempts to use FU when none available
system.cpu0.iq.fu_full::SimdCvt                     0      0.00%     85.13% # attempts to use FU when none available
system.cpu0.iq.fu_full::SimdMisc                    0      0.00%     85.13% # attempts to use FU when none available
system.cpu0.iq.fu_full::SimdMult                    0      0.00%     85.13% # attempts to use FU when none available
system.cpu0.iq.fu_full::SimdMultAcc                 0      0.00%     85.13% # attempts to use FU when none available
system.cpu0.iq.fu_full::SimdShift                   0      0.00%     85.13% # attempts to use FU when none available
system.cpu0.iq.fu_full::SimdShiftAcc                0      0.00%     85.13% # attempts to use FU when none available
system.cpu0.iq.fu_full::SimdSqrt                    0      0.00%     85.13% # attempts to use FU when none available
system.cpu0.iq.fu_full::SimdFloatAdd                0      0.00%     85.13% # attempts to use FU when none available
system.cpu0.iq.fu_full::SimdFloatAlu                0      0.00%     85.13% # attempts to use FU when none available
system.cpu0.iq.fu_full::SimdFloatCmp                0      0.00%     85.13% # attempts to use FU when none available
system.cpu0.iq.fu_full::SimdFloatCvt                0      0.00%     85.13% # attempts to use FU when none available
system.cpu0.iq.fu_full::SimdFloatDiv                0      0.00%     85.13% # attempts to use FU when none available
system.cpu0.iq.fu_full::SimdFloatMisc               0      0.00%     85.13% # attempts to use FU when none available
system.cpu0.iq.fu_full::SimdFloatMult               0      0.00%     85.13% # attempts to use FU when none available
system.cpu0.iq.fu_full::SimdFloatMultAcc            0      0.00%     85.13% # attempts to use FU when none available
system.cpu0.iq.fu_full::SimdFloatSqrt               0      0.00%     85.13% # attempts to use FU when none available
system.cpu0.iq.fu_full::MemRead                 36345      5.76%     90.89% # attempts to use FU when none available
system.cpu0.iq.fu_full::MemWrite                10655      1.69%     92.58% # attempts to use FU when none available
system.cpu0.iq.fu_full::FloatMemRead               41      0.01%     92.59% # attempts to use FU when none available
system.cpu0.iq.fu_full::FloatMemWrite           46730      7.41%    100.00% # attempts to use FU when none available
system.cpu0.iq.fu_full::IprAccess                   0      0.00%    100.00% # attempts to use FU when none available
system.cpu0.iq.fu_full::InstPrefetch                0      0.00%    100.00% # attempts to use FU when none available
system.cpu0.iq.FU_type_0::No_OpClass           398285      1.32%      1.32% # Type of FU issued
system.cpu0.iq.FU_type_0::IntAlu             23601516     77.99%     79.30% # Type of FU issued
system.cpu0.iq.FU_type_0::IntMult               19647      0.06%     79.37% # Type of FU issued
system.cpu0.iq.FU_type_0::IntDiv                78096      0.26%     79.63% # Type of FU issued
system.cpu0.iq.FU_type_0::FloatAdd              90119      0.30%     79.93% # Type of FU issued
system.cpu0.iq.FU_type_0::FloatCmp                  0      0.00%     79.93% # Type of FU issued
system.cpu0.iq.FU_type_0::FloatCvt                  0      0.00%     79.93% # Type of FU issued
system.cpu0.iq.FU_type_0::FloatMult                 0      0.00%     79.93% # Type of FU issued
system.cpu0.iq.FU_type_0::FloatMultAcc              0      0.00%     79.93% # Type of FU issued
system.cpu0.iq.FU_type_0::FloatDiv                  0      0.00%     79.93% # Type of FU issued
system.cpu0.iq.FU_type_0::FloatMisc                 0      0.00%     79.93% # Type of FU issued
system.cpu0.iq.FU_type_0::FloatSqrt                 0      0.00%     79.93% # Type of FU issued
system.cpu0.iq.FU_type_0::SimdAdd                   0      0.00%     79.93% # Type of FU issued
system.cpu0.iq.FU_type_0::SimdAddAcc                0      0.00%     79.93% # Type of FU issued
system.cpu0.iq.FU_type_0::SimdAlu                   0      0.00%     79.93% # Type of FU issued
system.cpu0.iq.FU_type_0::SimdCmp                   0      0.00%     79.93% # Type of FU issued
system.cpu0.iq.FU_type_0::SimdCvt                   0      0.00%     79.93% # Type of FU issued
system.cpu0.iq.FU_type_0::SimdMisc                  0      0.00%     79.93% # Type of FU issued
system.cpu0.iq.FU_type_0::SimdMult                  0      0.00%     79.93% # Type of FU issued
system.cpu0.iq.FU_type_0::SimdMultAcc               0      0.00%     79.93% # Type of FU issued
system.cpu0.iq.FU_type_0::SimdShift                 0      0.00%     79.93% # Type of FU issued
system.cpu0.iq.FU_type_0::SimdShiftAcc              0      0.00%     79.93% # Type of FU issued
system.cpu0.iq.FU_type_0::SimdSqrt                  0      0.00%     79.93% # Type of FU issued
system.cpu0.iq.FU_type_0::SimdFloatAdd              0      0.00%     79.93% # Type of FU issued
system.cpu0.iq.FU_type_0::SimdFloatAlu              0      0.00%     79.93% # Type of FU issued
system.cpu0.iq.FU_type_0::SimdFloatCmp              0      0.00%     79.93% # Type of FU issued
system.cpu0.iq.FU_type_0::SimdFloatCvt              0      0.00%     79.93% # Type of FU issued
system.cpu0.iq.FU_type_0::SimdFloatDiv              0      0.00%     79.93% # Type of FU issued
system.cpu0.iq.FU_type_0::SimdFloatMisc             0      0.00%     79.93% # Type of FU issued
system.cpu0.iq.FU_type_0::SimdFloatMult             0      0.00%     79.93% # Type of FU issued
system.cpu0.iq.FU_type_0::SimdFloatMultAcc            0      0.00%     79.93% # Type of FU issued
system.cpu0.iq.FU_type_0::SimdFloatSqrt             0      0.00%     79.93% # Type of FU issued
system.cpu0.iq.FU_type_0::MemRead             3606886     11.92%     91.84% # Type of FU issued
system.cpu0.iq.FU_type_0::MemWrite            2095880      6.93%     98.77% # Type of FU issued
system.cpu0.iq.FU_type_0::FloatMemRead          33976      0.11%     98.88% # Type of FU issued
system.cpu0.iq.FU_type_0::FloatMemWrite        338329      1.12%    100.00% # Type of FU issued
system.cpu0.iq.FU_type_0::IprAccess                 0      0.00%    100.00% # Type of FU issued
system.cpu0.iq.FU_type_0::InstPrefetch              0      0.00%    100.00% # Type of FU issued
system.cpu0.iq.FU_type_0::total              30262734                       # Type of FU issued
system.cpu0.iq.rate                          2.300458                       # Inst issue rate
system.cpu0.iq.fu_busy_cnt                     630531                       # FU busy when requested
system.cpu0.iq.fu_busy_rate                  0.020835                       # FU busy rate (busy events/executed inst)
system.cpu0.iq.int_inst_queue_reads          73378288                       # Number of integer instruction queue reads
system.cpu0.iq.int_inst_queue_writes         49855464                       # Number of integer instruction queue writes
system.cpu0.iq.int_inst_queue_wakeup_accesses     27497477                       # Number of integer instruction queue wakeup accesses
system.cpu0.iq.fp_inst_queue_reads             996198                       # Number of floating instruction queue reads
system.cpu0.iq.fp_inst_queue_writes            553037                       # Number of floating instruction queue writes
system.cpu0.iq.fp_inst_queue_wakeup_accesses       458838                       # Number of floating instruction queue wakeup accesses
system.cpu0.iq.vec_inst_queue_reads                 0                       # Number of vector instruction queue reads
system.cpu0.iq.vec_inst_queue_writes                0                       # Number of vector instruction queue writes
system.cpu0.iq.vec_inst_queue_wakeup_accesses            0                       # Number of vector instruction queue wakeup accesses
system.cpu0.iq.int_alu_accesses              29976049                       # Number of integer alu accesses
system.cpu0.iq.fp_alu_accesses                 518931                       # Number of floating point alu accesses
system.cpu0.iq.vec_alu_accesses                     0                       # Number of vector alu accesses
system.cpu0.iew.lsq.thread0.forwLoads          209096                       # Number of loads that had data forwarded from stores
system.cpu0.iew.lsq.thread0.invAddrLoads            0                       # Number of loads ignored due to an invalid address
system.cpu0.iew.lsq.thread0.squashedLoads      1969392                       # Number of loads squashed
system.cpu0.iew.lsq.thread0.ignoredResponses         6822                       # Number of memory responses ignored because the instruction is squashed
system.cpu0.iew.lsq.thread0.memOrderViolation         1346                       # Number of memory ordering violations
system.cpu0.iew.lsq.thread0.squashedStores      1207287                       # Number of stores squashed
system.cpu0.iew.lsq.thread0.invAddrSwpfs            0                       # Number of software prefetches ignored due to an invalid address
system.cpu0.iew.lsq.thread0.blockedLoads            0                       # Number of blocked loads due to partial load-store forwarding
system.cpu0.iew.lsq.thread0.rescheduledLoads         1246                       # Number of loads that were rescheduled
system.cpu0.iew.lsq.thread0.cacheBlocked           24                       # Number of times an access to memory failed due to the cache being blocked
system.cpu0.iew.iewIdleCycles                       0                       # Number of cycles IEW is idle
system.cpu0.iew.iewSquashCycles                637454                       # Number of cycles IEW is squashing
system.cpu0.iew.iewBlockCycles                1780377                       # Number of cycles IEW is blocking
system.cpu0.iew.iewUnblockCycles                25668                       # Number of cycles IEW is unblocking
system.cpu0.iew.iewDispatchedInsts           35106969                       # Number of instructions dispatched to IQ
system.cpu0.iew.iewDispSquashedInsts            30976                       # Number of squashed instructions skipped by dispatch
system.cpu0.iew.iewDispLoadInsts              4257758                       # Number of dispatched load instructions
system.cpu0.iew.iewDispStoreInsts             2991882                       # Number of dispatched store instructions
system.cpu0.iew.iewDispNonSpecInsts             33793                       # Number of dispatched non-speculative instructions
system.cpu0.iew.iewIQFullEvents                  2050                       # Number of times the IQ has become full, causing a stall
system.cpu0.iew.iewLSQFullEvents                19321                       # Number of times the LSQ has become full, causing a stall
system.cpu0.iew.memOrderViolationEvents          1346                       # Number of memory order violations
system.cpu0.iew.predictedTakenIncorrect        169118                       # Number of branches that were predicted taken incorrectly
system.cpu0.iew.predictedNotTakenIncorrect       705093                       # Number of branches that were predicted not taken incorrectly
system.cpu0.iew.branchMispredicts              874211                       # Number of branch mispredicts detected at execute
system.cpu0.iew.iewExecutedInsts             28582438                       # Number of executed instructions
system.cpu0.iew.iewExecLoadInsts              3325160                       # Number of load instructions executed
system.cpu0.iew.iewExecSquashedInsts          1680289                       # Number of squashed instructions skipped in execute
system.cpu0.iew.exec_swp                            0                       # number of swp insts executed
system.cpu0.iew.exec_nop                            0                       # number of nop insts executed
system.cpu0.iew.exec_refs                     5576447                       # number of memory reference insts executed
system.cpu0.iew.exec_branches                 3252735                       # Number of branches executed
system.cpu0.iew.exec_stores                   2251287                       # Number of stores executed
system.cpu0.iew.exec_rate                    2.172729                       # Inst execution rate
system.cpu0.iew.wb_sent                      28282597                       # cumulative count of insts sent to commit
system.cpu0.iew.wb_count                     27956315                       # cumulative count of insts written-back
system.cpu0.iew.wb_producers                 19189980                       # num instructions producing a value
system.cpu0.iew.wb_consumers                 29764415                       # num instructions consuming a value
system.cpu0.iew.wb_rate                      2.125133                       # insts written-back per cycle
system.cpu0.iew.wb_fanout                    0.644729                       # average fanout of values written-back
system.cpu0.commit.commitSquashedInsts       15300900                       # The number of squashed insts skipped by commit
system.cpu0.commit.commitNonSpecStalls          30155                       # The number of times commit has been forced to stall to communicate backwards
system.cpu0.commit.branchMispredicts           636986                       # The number of times a branch was mispredicted
system.cpu0.commit.committed_per_cycle::samples     10599292                       # Number of insts commited each cycle
system.cpu0.commit.committed_per_cycle::mean     1.868633                       # Number of insts commited each cycle
system.cpu0.commit.committed_per_cycle::stdev     2.612656                       # Number of insts commited each cycle
system.cpu0.commit.committed_per_cycle::underflows            0      0.00%      0.00% # Number of insts commited each cycle
system.cpu0.commit.committed_per_cycle::0      5463745     51.55%     51.55% # Number of insts commited each cycle
system.cpu0.commit.committed_per_cycle::1      1184959     11.18%     62.73% # Number of insts commited each cycle
system.cpu0.commit.committed_per_cycle::2       737656      6.96%     69.69% # Number of insts commited each cycle
system.cpu0.commit.committed_per_cycle::3       954711      9.01%     78.69% # Number of insts commited each cycle
system.cpu0.commit.committed_per_cycle::4       519975      4.91%     83.60% # Number of insts commited each cycle
system.cpu0.commit.committed_per_cycle::5       373640      3.53%     87.13% # Number of insts commited each cycle
system.cpu0.commit.committed_per_cycle::6       192559      1.82%     88.94% # Number of insts commited each cycle
system.cpu0.commit.committed_per_cycle::7       198050      1.87%     90.81% # Number of insts commited each cycle
system.cpu0.commit.committed_per_cycle::8       973997      9.19%    100.00% # Number of insts commited each cycle
system.cpu0.commit.committed_per_cycle::overflows            0      0.00%    100.00% # Number of insts commited each cycle
system.cpu0.commit.committed_per_cycle::min_value            0                       # Number of insts commited each cycle
system.cpu0.commit.committed_per_cycle::max_value            8                       # Number of insts commited each cycle
system.cpu0.commit.committed_per_cycle::total     10599292                       # Number of insts commited each cycle
system.cpu0.commit.committedInsts             9953765                       # Number of instructions committed
system.cpu0.commit.committedOps              19806184                       # Number of ops (including micro ops) committed
system.cpu0.commit.swp_count                        0                       # Number of s/w prefetches committed
system.cpu0.commit.refs                       4072951                       # Number of memory references committed
system.cpu0.commit.loads                      2288361                       # Number of loads committed
system.cpu0.commit.membars                      20040                       # Number of memory barriers committed
system.cpu0.commit.branches                   2499470                       # Number of branches committed
system.cpu0.commit.vec_insts                        0                       # Number of committed Vector instructions.
system.cpu0.commit.fp_insts                    442093                       # Number of committed floating point instructions.
system.cpu0.commit.int_insts                 19620234                       # Number of committed integer instructions.
system.cpu0.commit.function_calls              228431                       # Number of function calls committed.
system.cpu0.commit.op_class_0::No_OpClass        80268      0.41%      0.41% # Class of committed instruction
system.cpu0.commit.op_class_0::IntAlu        15471485     78.11%     78.52% # Class of committed instruction
system.cpu0.commit.op_class_0::IntMult          17761      0.09%     78.61% # Class of committed instruction
system.cpu0.commit.op_class_0::IntDiv           76038      0.38%     78.99% # Class of committed instruction
system.cpu0.commit.op_class_0::FloatAdd         87681      0.44%     79.44% # Class of committed instruction
system.cpu0.commit.op_class_0::FloatCmp             0      0.00%     79.44% # Class of committed instruction
system.cpu0.commit.op_class_0::FloatCvt             0      0.00%     79.44% # Class of committed instruction
system.cpu0.commit.op_class_0::FloatMult            0      0.00%     79.44% # Class of committed instruction
system.cpu0.commit.op_class_0::FloatMultAcc            0      0.00%     79.44% # Class of committed instruction
system.cpu0.commit.op_class_0::FloatDiv             0      0.00%     79.44% # Class of committed instruction
system.cpu0.commit.op_class_0::FloatMisc            0      0.00%     79.44% # Class of committed instruction
system.cpu0.commit.op_class_0::FloatSqrt            0      0.00%     79.44% # Class of committed instruction
system.cpu0.commit.op_class_0::SimdAdd              0      0.00%     79.44% # Class of committed instruction
system.cpu0.commit.op_class_0::SimdAddAcc            0      0.00%     79.44% # Class of committed instruction
system.cpu0.commit.op_class_0::SimdAlu              0      0.00%     79.44% # Class of committed instruction
system.cpu0.commit.op_class_0::SimdCmp              0      0.00%     79.44% # Class of committed instruction
system.cpu0.commit.op_class_0::SimdCvt              0      0.00%     79.44% # Class of committed instruction
system.cpu0.commit.op_class_0::SimdMisc             0      0.00%     79.44% # Class of committed instruction
system.cpu0.commit.op_class_0::SimdMult             0      0.00%     79.44% # Class of committed instruction
system.cpu0.commit.op_class_0::SimdMultAcc            0      0.00%     79.44% # Class of committed instruction
system.cpu0.commit.op_class_0::SimdShift            0      0.00%     79.44% # Class of committed instruction
system.cpu0.commit.op_class_0::SimdShiftAcc            0      0.00%     79.44% # Class of committed instruction
system.cpu0.commit.op_class_0::SimdSqrt             0      0.00%     79.44% # Class of committed instruction
system.cpu0.commit.op_class_0::SimdFloatAdd            0      0.00%     79.44% # Class of committed instruction
system.cpu0.commit.op_class_0::SimdFloatAlu            0      0.00%     79.44% # Class of committed instruction
system.cpu0.commit.op_class_0::SimdFloatCmp            0      0.00%     79.44% # Class of committed instruction
system.cpu0.commit.op_class_0::SimdFloatCvt            0      0.00%     79.44% # Class of committed instruction
system.cpu0.commit.op_class_0::SimdFloatDiv            0      0.00%     79.44% # Class of committed instruction
system.cpu0.commit.op_class_0::SimdFloatMisc            0      0.00%     79.44% # Class of committed instruction
system.cpu0.commit.op_class_0::SimdFloatMult            0      0.00%     79.44% # Class of committed instruction
system.cpu0.commit.op_class_0::SimdFloatMultAcc            0      0.00%     79.44% # Class of committed instruction
system.cpu0.commit.op_class_0::SimdFloatSqrt            0      0.00%     79.44% # Class of committed instruction
system.cpu0.commit.op_class_0::MemRead        2265715     11.44%     90.88% # Class of committed instruction
system.cpu0.commit.op_class_0::MemWrite       1462084      7.38%     98.26% # Class of committed instruction
system.cpu0.commit.op_class_0::FloatMemRead        22646      0.11%     98.37% # Class of committed instruction
system.cpu0.commit.op_class_0::FloatMemWrite       322506      1.63%    100.00% # Class of committed instruction
system.cpu0.commit.op_class_0::IprAccess            0      0.00%    100.00% # Class of committed instruction
system.cpu0.commit.op_class_0::InstPrefetch            0      0.00%    100.00% # Class of committed instruction
system.cpu0.commit.op_class_0::total         19806184                       # Class of committed instruction
system.cpu0.commit.bw_lim_events               973997                       # number cycles where commit BW limit reached
system.cpu0.rob.rob_reads                    44732379                       # The number of ROB reads
system.cpu0.rob.rob_writes                   72652362                       # The number of ROB writes
system.cpu0.timesIdled                           3941                       # Number of times that the entire CPU went into an idle state and unscheduled itself
system.cpu0.idleCycles                         172935                       # Total number of cycles that the CPU has spent unscheduled due to idling
system.cpu0.committedInsts                    9953765                       # Number of Instructions Simulated
system.cpu0.committedOps                     19806184                       # Number of Ops (including micro ops) Simulated
system.cpu0.cpi                              1.321619                       # CPI: Cycles Per Instruction
system.cpu0.cpi_total                        1.321619                       # CPI: Total CPI of All Threads
system.cpu0.ipc                              0.756648                       # IPC: Instructions Per Cycle
system.cpu0.ipc_total                        0.756648                       # IPC: Total IPC of All Threads
system.cpu0.int_regfile_reads                38266408                       # number of integer regfile reads
system.cpu0.int_regfile_writes               22417077                       # number of integer regfile writes
system.cpu0.fp_regfile_reads                   516172                       # number of floating regfile reads
system.cpu0.fp_regfile_writes                  114215                       # number of floating regfile writes
system.cpu0.cc_regfile_reads                 14061149                       # number of cc regfile reads
system.cpu0.cc_regfile_writes                 8121819                       # number of cc regfile writes
system.cpu0.misc_regfile_reads               12483998                       # number of misc regfile reads
system.cpu0.misc_regfile_writes                    46                       # number of misc regfile writes
system.cpu0.dcache.tags.pwrStateResidencyTicks::UNDEFINED   4380643971                       # Cumulative time (in ticks) in various power states
system.cpu0.dcache.tags.replacements              602                       # number of replacements
system.cpu0.dcache.tags.tagsinuse          508.236506                       # Cycle average of tags in use
system.cpu0.dcache.tags.total_refs            4826193                       # Total number of references to valid blocks.
system.cpu0.dcache.tags.sampled_refs             1114                       # Sample count of references to valid blocks.
system.cpu0.dcache.tags.avg_refs          4332.309695                       # Average number of references to valid blocks.
system.cpu0.dcache.tags.warmup_cycle           160173                       # Cycle when the warmup percentage was hit.
system.cpu0.dcache.tags.occ_blocks::cpu0.data   508.236506                       # Average occupied blocks per requestor
system.cpu0.dcache.tags.occ_percent::cpu0.data     0.992649                       # Average percentage of cache occupancy
system.cpu0.dcache.tags.occ_percent::total     0.992649                       # Average percentage of cache occupancy
system.cpu0.dcache.tags.occ_task_id_blocks::1024          512                       # Occupied blocks per task id
system.cpu0.dcache.tags.age_task_id_blocks_1024::0            1                       # Occupied blocks per task id
system.cpu0.dcache.tags.age_task_id_blocks_1024::1            3                       # Occupied blocks per task id
system.cpu0.dcache.tags.age_task_id_blocks_1024::2           27                       # Occupied blocks per task id
system.cpu0.dcache.tags.age_task_id_blocks_1024::3          481                       # Occupied blocks per task id
system.cpu0.dcache.tags.occ_task_id_percent::1024            1                       # Percentage of cache occupancy per task id
system.cpu0.dcache.tags.tag_accesses         38630698                       # Number of tag accesses
system.cpu0.dcache.tags.data_accesses        38630698                       # Number of data accesses
system.cpu0.dcache.pwrStateResidencyTicks::UNDEFINED   4380643971                       # Cumulative time (in ticks) in various power states
system.cpu0.dcache.ReadReq_hits::cpu0.data      3040929                       # number of ReadReq hits
system.cpu0.dcache.ReadReq_hits::total        3040929                       # number of ReadReq hits
system.cpu0.dcache.WriteReq_hits::cpu0.data      1785251                       # number of WriteReq hits
system.cpu0.dcache.WriteReq_hits::total       1785251                       # number of WriteReq hits
system.cpu0.dcache.demand_hits::cpu0.data      4826180                       # number of demand (read+write) hits
system.cpu0.dcache.demand_hits::total         4826180                       # number of demand (read+write) hits
system.cpu0.dcache.overall_hits::cpu0.data      4826180                       # number of overall hits
system.cpu0.dcache.overall_hits::total        4826180                       # number of overall hits
system.cpu0.dcache.ReadReq_misses::cpu0.data         2044                       # number of ReadReq misses
system.cpu0.dcache.ReadReq_misses::total         2044                       # number of ReadReq misses
system.cpu0.dcache.WriteReq_misses::cpu0.data          474                       # number of WriteReq misses
system.cpu0.dcache.WriteReq_misses::total          474                       # number of WriteReq misses
system.cpu0.dcache.demand_misses::cpu0.data         2518                       # number of demand (read+write) misses
system.cpu0.dcache.demand_misses::total          2518                       # number of demand (read+write) misses
system.cpu0.dcache.overall_misses::cpu0.data         2518                       # number of overall misses
system.cpu0.dcache.overall_misses::total         2518                       # number of overall misses
system.cpu0.dcache.ReadReq_miss_latency::cpu0.data    120634578                       # number of ReadReq miss cycles
system.cpu0.dcache.ReadReq_miss_latency::total    120634578                       # number of ReadReq miss cycles
system.cpu0.dcache.WriteReq_miss_latency::cpu0.data     30360609                       # number of WriteReq miss cycles
system.cpu0.dcache.WriteReq_miss_latency::total     30360609                       # number of WriteReq miss cycles
system.cpu0.dcache.demand_miss_latency::cpu0.data    150995187                       # number of demand (read+write) miss cycles
system.cpu0.dcache.demand_miss_latency::total    150995187                       # number of demand (read+write) miss cycles
system.cpu0.dcache.overall_miss_latency::cpu0.data    150995187                       # number of overall miss cycles
system.cpu0.dcache.overall_miss_latency::total    150995187                       # number of overall miss cycles
system.cpu0.dcache.ReadReq_accesses::cpu0.data      3042973                       # number of ReadReq accesses(hits+misses)
system.cpu0.dcache.ReadReq_accesses::total      3042973                       # number of ReadReq accesses(hits+misses)
system.cpu0.dcache.WriteReq_accesses::cpu0.data      1785725                       # number of WriteReq accesses(hits+misses)
system.cpu0.dcache.WriteReq_accesses::total      1785725                       # number of WriteReq accesses(hits+misses)
system.cpu0.dcache.demand_accesses::cpu0.data      4828698                       # number of demand (read+write) accesses
system.cpu0.dcache.demand_accesses::total      4828698                       # number of demand (read+write) accesses
system.cpu0.dcache.overall_accesses::cpu0.data      4828698                       # number of overall (read+write) accesses
system.cpu0.dcache.overall_accesses::total      4828698                       # number of overall (read+write) accesses
system.cpu0.dcache.ReadReq_miss_rate::cpu0.data     0.000672                       # miss rate for ReadReq accesses
system.cpu0.dcache.ReadReq_miss_rate::total     0.000672                       # miss rate for ReadReq accesses
system.cpu0.dcache.WriteReq_miss_rate::cpu0.data     0.000265                       # miss rate for WriteReq accesses
system.cpu0.dcache.WriteReq_miss_rate::total     0.000265                       # miss rate for WriteReq accesses
system.cpu0.dcache.demand_miss_rate::cpu0.data     0.000521                       # miss rate for demand accesses
system.cpu0.dcache.demand_miss_rate::total     0.000521                       # miss rate for demand accesses
system.cpu0.dcache.overall_miss_rate::cpu0.data     0.000521                       # miss rate for overall accesses
system.cpu0.dcache.overall_miss_rate::total     0.000521                       # miss rate for overall accesses
system.cpu0.dcache.ReadReq_avg_miss_latency::cpu0.data 59018.873777                       # average ReadReq miss latency
system.cpu0.dcache.ReadReq_avg_miss_latency::total 59018.873777                       # average ReadReq miss latency
system.cpu0.dcache.WriteReq_avg_miss_latency::cpu0.data 64051.917722                       # average WriteReq miss latency
system.cpu0.dcache.WriteReq_avg_miss_latency::total 64051.917722                       # average WriteReq miss latency
system.cpu0.dcache.demand_avg_miss_latency::cpu0.data 59966.317315                       # average overall miss latency
system.cpu0.dcache.demand_avg_miss_latency::total 59966.317315                       # average overall miss latency
system.cpu0.dcache.overall_avg_miss_latency::cpu0.data 59966.317315                       # average overall miss latency
system.cpu0.dcache.overall_avg_miss_latency::total 59966.317315                       # average overall miss latency
system.cpu0.dcache.blocked_cycles::no_mshrs         1067                       # number of cycles access was blocked
system.cpu0.dcache.blocked_cycles::no_targets            0                       # number of cycles access was blocked
system.cpu0.dcache.blocked::no_mshrs                5                       # number of cycles access was blocked
system.cpu0.dcache.blocked::no_targets              0                       # number of cycles access was blocked
system.cpu0.dcache.avg_blocked_cycles::no_mshrs   213.400000                       # average number of cycles each access was blocked
system.cpu0.dcache.avg_blocked_cycles::no_targets          nan                       # average number of cycles each access was blocked
system.cpu0.dcache.writebacks::writebacks          369                       # number of writebacks
system.cpu0.dcache.writebacks::total              369                       # number of writebacks
system.cpu0.dcache.ReadReq_mshr_hits::cpu0.data         1388                       # number of ReadReq MSHR hits
system.cpu0.dcache.ReadReq_mshr_hits::total         1388                       # number of ReadReq MSHR hits
system.cpu0.dcache.WriteReq_mshr_hits::cpu0.data            4                       # number of WriteReq MSHR hits
system.cpu0.dcache.WriteReq_mshr_hits::total            4                       # number of WriteReq MSHR hits
system.cpu0.dcache.demand_mshr_hits::cpu0.data         1392                       # number of demand (read+write) MSHR hits
system.cpu0.dcache.demand_mshr_hits::total         1392                       # number of demand (read+write) MSHR hits
system.cpu0.dcache.overall_mshr_hits::cpu0.data         1392                       # number of overall MSHR hits
system.cpu0.dcache.overall_mshr_hits::total         1392                       # number of overall MSHR hits
system.cpu0.dcache.ReadReq_mshr_misses::cpu0.data          656                       # number of ReadReq MSHR misses
system.cpu0.dcache.ReadReq_mshr_misses::total          656                       # number of ReadReq MSHR misses
system.cpu0.dcache.WriteReq_mshr_misses::cpu0.data          470                       # number of WriteReq MSHR misses
system.cpu0.dcache.WriteReq_mshr_misses::total          470                       # number of WriteReq MSHR misses
system.cpu0.dcache.demand_mshr_misses::cpu0.data         1126                       # number of demand (read+write) MSHR misses
system.cpu0.dcache.demand_mshr_misses::total         1126                       # number of demand (read+write) MSHR misses
system.cpu0.dcache.overall_mshr_misses::cpu0.data         1126                       # number of overall MSHR misses
system.cpu0.dcache.overall_mshr_misses::total         1126                       # number of overall MSHR misses
system.cpu0.dcache.ReadReq_mshr_miss_latency::cpu0.data     41462496                       # number of ReadReq MSHR miss cycles
system.cpu0.dcache.ReadReq_mshr_miss_latency::total     41462496                       # number of ReadReq MSHR miss cycles
system.cpu0.dcache.WriteReq_mshr_miss_latency::cpu0.data     29884086                       # number of WriteReq MSHR miss cycles
system.cpu0.dcache.WriteReq_mshr_miss_latency::total     29884086                       # number of WriteReq MSHR miss cycles
system.cpu0.dcache.demand_mshr_miss_latency::cpu0.data     71346582                       # number of demand (read+write) MSHR miss cycles
system.cpu0.dcache.demand_mshr_miss_latency::total     71346582                       # number of demand (read+write) MSHR miss cycles
system.cpu0.dcache.overall_mshr_miss_latency::cpu0.data     71346582                       # number of overall MSHR miss cycles
system.cpu0.dcache.overall_mshr_miss_latency::total     71346582                       # number of overall MSHR miss cycles
system.cpu0.dcache.ReadReq_mshr_miss_rate::cpu0.data     0.000216                       # mshr miss rate for ReadReq accesses
system.cpu0.dcache.ReadReq_mshr_miss_rate::total     0.000216                       # mshr miss rate for ReadReq accesses
system.cpu0.dcache.WriteReq_mshr_miss_rate::cpu0.data     0.000263                       # mshr miss rate for WriteReq accesses
system.cpu0.dcache.WriteReq_mshr_miss_rate::total     0.000263                       # mshr miss rate for WriteReq accesses
system.cpu0.dcache.demand_mshr_miss_rate::cpu0.data     0.000233                       # mshr miss rate for demand accesses
system.cpu0.dcache.demand_mshr_miss_rate::total     0.000233                       # mshr miss rate for demand accesses
system.cpu0.dcache.overall_mshr_miss_rate::cpu0.data     0.000233                       # mshr miss rate for overall accesses
system.cpu0.dcache.overall_mshr_miss_rate::total     0.000233                       # mshr miss rate for overall accesses
system.cpu0.dcache.ReadReq_avg_mshr_miss_latency::cpu0.data 63205.024390                       # average ReadReq mshr miss latency
system.cpu0.dcache.ReadReq_avg_mshr_miss_latency::total 63205.024390                       # average ReadReq mshr miss latency
system.cpu0.dcache.WriteReq_avg_mshr_miss_latency::cpu0.data 63583.161702                       # average WriteReq mshr miss latency
system.cpu0.dcache.WriteReq_avg_mshr_miss_latency::total 63583.161702                       # average WriteReq mshr miss latency
system.cpu0.dcache.demand_avg_mshr_miss_latency::cpu0.data 63362.861456                       # average overall mshr miss latency
system.cpu0.dcache.demand_avg_mshr_miss_latency::total 63362.861456                       # average overall mshr miss latency
system.cpu0.dcache.overall_avg_mshr_miss_latency::cpu0.data 63362.861456                       # average overall mshr miss latency
system.cpu0.dcache.overall_avg_mshr_miss_latency::total 63362.861456                       # average overall mshr miss latency
system.cpu0.dtb_walker_cache.tags.pwrStateResidencyTicks::UNDEFINED   4380643971                       # Cumulative time (in ticks) in various power states
system.cpu0.dtb_walker_cache.tags.replacements            0                       # number of replacements
system.cpu0.dtb_walker_cache.tags.tagsinuse            0                       # Cycle average of tags in use
system.cpu0.dtb_walker_cache.tags.total_refs            0                       # Total number of references to valid blocks.
system.cpu0.dtb_walker_cache.tags.sampled_refs            0                       # Sample count of references to valid blocks.
system.cpu0.dtb_walker_cache.tags.avg_refs          nan                       # Average number of references to valid blocks.
system.cpu0.dtb_walker_cache.tags.warmup_cycle            0                       # Cycle when the warmup percentage was hit.
system.cpu0.dtb_walker_cache.tags.tag_accesses            0                       # Number of tag accesses
system.cpu0.dtb_walker_cache.tags.data_accesses            0                       # Number of data accesses
system.cpu0.dtb_walker_cache.pwrStateResidencyTicks::UNDEFINED   4380643971                       # Cumulative time (in ticks) in various power states
system.cpu0.dtb_walker_cache.blocked_cycles::no_mshrs            0                       # number of cycles access was blocked
system.cpu0.dtb_walker_cache.blocked_cycles::no_targets            0                       # number of cycles access was blocked
system.cpu0.dtb_walker_cache.blocked::no_mshrs            0                       # number of cycles access was blocked
system.cpu0.dtb_walker_cache.blocked::no_targets            0                       # number of cycles access was blocked
system.cpu0.dtb_walker_cache.avg_blocked_cycles::no_mshrs          nan                       # average number of cycles each access was blocked
system.cpu0.dtb_walker_cache.avg_blocked_cycles::no_targets          nan                       # average number of cycles each access was blocked
system.cpu0.icache.tags.pwrStateResidencyTicks::UNDEFINED   4380643971                       # Cumulative time (in ticks) in various power states
system.cpu0.icache.tags.replacements           102686                       # number of replacements
system.cpu0.icache.tags.tagsinuse          509.738208                       # Cycle average of tags in use
system.cpu0.icache.tags.total_refs            3185001                       # Total number of references to valid blocks.
system.cpu0.icache.tags.sampled_refs           103198                       # Sample count of references to valid blocks.
system.cpu0.icache.tags.avg_refs            30.863011                       # Average number of references to valid blocks.
system.cpu0.icache.tags.warmup_cycle            76257                       # Cycle when the warmup percentage was hit.
system.cpu0.icache.tags.occ_blocks::cpu0.inst   509.738208                       # Average occupied blocks per requestor
system.cpu0.icache.tags.occ_percent::cpu0.inst     0.995582                       # Average percentage of cache occupancy
system.cpu0.icache.tags.occ_percent::total     0.995582                       # Average percentage of cache occupancy
system.cpu0.icache.tags.occ_task_id_blocks::1024          512                       # Occupied blocks per task id
system.cpu0.icache.tags.age_task_id_blocks_1024::0          180                       # Occupied blocks per task id
system.cpu0.icache.tags.age_task_id_blocks_1024::1           81                       # Occupied blocks per task id
system.cpu0.icache.tags.age_task_id_blocks_1024::2           61                       # Occupied blocks per task id
system.cpu0.icache.tags.age_task_id_blocks_1024::3          190                       # Occupied blocks per task id
system.cpu0.icache.tags.occ_task_id_percent::1024            1                       # Percentage of cache occupancy per task id
system.cpu0.icache.tags.tag_accesses         26462080                       # Number of tag accesses
system.cpu0.icache.tags.data_accesses        26462080                       # Number of data accesses
system.cpu0.icache.pwrStateResidencyTicks::UNDEFINED   4380643971                       # Cumulative time (in ticks) in various power states
system.cpu0.icache.ReadReq_hits::cpu0.inst      3185002                       # number of ReadReq hits
system.cpu0.icache.ReadReq_hits::total        3185002                       # number of ReadReq hits
system.cpu0.icache.demand_hits::cpu0.inst      3185002                       # number of demand (read+write) hits
system.cpu0.icache.demand_hits::total         3185002                       # number of demand (read+write) hits
system.cpu0.icache.overall_hits::cpu0.inst      3185002                       # number of overall hits
system.cpu0.icache.overall_hits::total        3185002                       # number of overall hits
system.cpu0.icache.ReadReq_misses::cpu0.inst       109857                       # number of ReadReq misses
system.cpu0.icache.ReadReq_misses::total       109857                       # number of ReadReq misses
system.cpu0.icache.demand_misses::cpu0.inst       109857                       # number of demand (read+write) misses
system.cpu0.icache.demand_misses::total        109857                       # number of demand (read+write) misses
system.cpu0.icache.overall_misses::cpu0.inst       109857                       # number of overall misses
system.cpu0.icache.overall_misses::total       109857                       # number of overall misses
system.cpu0.icache.ReadReq_miss_latency::cpu0.inst    661547120                       # number of ReadReq miss cycles
system.cpu0.icache.ReadReq_miss_latency::total    661547120                       # number of ReadReq miss cycles
system.cpu0.icache.demand_miss_latency::cpu0.inst    661547120                       # number of demand (read+write) miss cycles
system.cpu0.icache.demand_miss_latency::total    661547120                       # number of demand (read+write) miss cycles
system.cpu0.icache.overall_miss_latency::cpu0.inst    661547120                       # number of overall miss cycles
system.cpu0.icache.overall_miss_latency::total    661547120                       # number of overall miss cycles
system.cpu0.icache.ReadReq_accesses::cpu0.inst      3294859                       # number of ReadReq accesses(hits+misses)
system.cpu0.icache.ReadReq_accesses::total      3294859                       # number of ReadReq accesses(hits+misses)
system.cpu0.icache.demand_accesses::cpu0.inst      3294859                       # number of demand (read+write) accesses
system.cpu0.icache.demand_accesses::total      3294859                       # number of demand (read+write) accesses
system.cpu0.icache.overall_accesses::cpu0.inst      3294859                       # number of overall (read+write) accesses
system.cpu0.icache.overall_accesses::total      3294859                       # number of overall (read+write) accesses
system.cpu0.icache.ReadReq_miss_rate::cpu0.inst     0.033342                       # miss rate for ReadReq accesses
system.cpu0.icache.ReadReq_miss_rate::total     0.033342                       # miss rate for ReadReq accesses
system.cpu0.icache.demand_miss_rate::cpu0.inst     0.033342                       # miss rate for demand accesses
system.cpu0.icache.demand_miss_rate::total     0.033342                       # miss rate for demand accesses
system.cpu0.icache.overall_miss_rate::cpu0.inst     0.033342                       # miss rate for overall accesses
system.cpu0.icache.overall_miss_rate::total     0.033342                       # miss rate for overall accesses
system.cpu0.icache.ReadReq_avg_miss_latency::cpu0.inst  6021.893188                       # average ReadReq miss latency
system.cpu0.icache.ReadReq_avg_miss_latency::total  6021.893188                       # average ReadReq miss latency
system.cpu0.icache.demand_avg_miss_latency::cpu0.inst  6021.893188                       # average overall miss latency
system.cpu0.icache.demand_avg_miss_latency::total  6021.893188                       # average overall miss latency
system.cpu0.icache.overall_avg_miss_latency::cpu0.inst  6021.893188                       # average overall miss latency
system.cpu0.icache.overall_avg_miss_latency::total  6021.893188                       # average overall miss latency
system.cpu0.icache.blocked_cycles::no_mshrs         2056                       # number of cycles access was blocked
system.cpu0.icache.blocked_cycles::no_targets            0                       # number of cycles access was blocked
system.cpu0.icache.blocked::no_mshrs               53                       # number of cycles access was blocked
system.cpu0.icache.blocked::no_targets              0                       # number of cycles access was blocked
system.cpu0.icache.avg_blocked_cycles::no_mshrs    38.792453                       # average number of cycles each access was blocked
system.cpu0.icache.avg_blocked_cycles::no_targets          nan                       # average number of cycles each access was blocked
system.cpu0.icache.writebacks::writebacks       102686                       # number of writebacks
system.cpu0.icache.writebacks::total           102686                       # number of writebacks
system.cpu0.icache.ReadReq_mshr_hits::cpu0.inst         6649                       # number of ReadReq MSHR hits
system.cpu0.icache.ReadReq_mshr_hits::total         6649                       # number of ReadReq MSHR hits
system.cpu0.icache.demand_mshr_hits::cpu0.inst         6649                       # number of demand (read+write) MSHR hits
system.cpu0.icache.demand_mshr_hits::total         6649                       # number of demand (read+write) MSHR hits
system.cpu0.icache.overall_mshr_hits::cpu0.inst         6649                       # number of overall MSHR hits
system.cpu0.icache.overall_mshr_hits::total         6649                       # number of overall MSHR hits
system.cpu0.icache.ReadReq_mshr_misses::cpu0.inst       103208                       # number of ReadReq MSHR misses
system.cpu0.icache.ReadReq_mshr_misses::total       103208                       # number of ReadReq MSHR misses
system.cpu0.icache.demand_mshr_misses::cpu0.inst       103208                       # number of demand (read+write) MSHR misses
system.cpu0.icache.demand_mshr_misses::total       103208                       # number of demand (read+write) MSHR misses
system.cpu0.icache.overall_mshr_misses::cpu0.inst       103208                       # number of overall MSHR misses
system.cpu0.icache.overall_mshr_misses::total       103208                       # number of overall MSHR misses
system.cpu0.icache.ReadReq_mshr_miss_latency::cpu0.inst    555276498                       # number of ReadReq MSHR miss cycles
system.cpu0.icache.ReadReq_mshr_miss_latency::total    555276498                       # number of ReadReq MSHR miss cycles
system.cpu0.icache.demand_mshr_miss_latency::cpu0.inst    555276498                       # number of demand (read+write) MSHR miss cycles
system.cpu0.icache.demand_mshr_miss_latency::total    555276498                       # number of demand (read+write) MSHR miss cycles
system.cpu0.icache.overall_mshr_miss_latency::cpu0.inst    555276498                       # number of overall MSHR miss cycles
system.cpu0.icache.overall_mshr_miss_latency::total    555276498                       # number of overall MSHR miss cycles
system.cpu0.icache.ReadReq_mshr_miss_rate::cpu0.inst     0.031324                       # mshr miss rate for ReadReq accesses
system.cpu0.icache.ReadReq_mshr_miss_rate::total     0.031324                       # mshr miss rate for ReadReq accesses
system.cpu0.icache.demand_mshr_miss_rate::cpu0.inst     0.031324                       # mshr miss rate for demand accesses
system.cpu0.icache.demand_mshr_miss_rate::total     0.031324                       # mshr miss rate for demand accesses
system.cpu0.icache.overall_mshr_miss_rate::cpu0.inst     0.031324                       # mshr miss rate for overall accesses
system.cpu0.icache.overall_mshr_miss_rate::total     0.031324                       # mshr miss rate for overall accesses
system.cpu0.icache.ReadReq_avg_mshr_miss_latency::cpu0.inst  5380.169154                       # average ReadReq mshr miss latency
system.cpu0.icache.ReadReq_avg_mshr_miss_latency::total  5380.169154                       # average ReadReq mshr miss latency
system.cpu0.icache.demand_avg_mshr_miss_latency::cpu0.inst  5380.169154                       # average overall mshr miss latency
system.cpu0.icache.demand_avg_mshr_miss_latency::total  5380.169154                       # average overall mshr miss latency
system.cpu0.icache.overall_avg_mshr_miss_latency::cpu0.inst  5380.169154                       # average overall mshr miss latency
system.cpu0.icache.overall_avg_mshr_miss_latency::total  5380.169154                       # average overall mshr miss latency
system.cpu0.itb_walker_cache.tags.pwrStateResidencyTicks::UNDEFINED   4380643971                       # Cumulative time (in ticks) in various power states
system.cpu0.itb_walker_cache.tags.replacements            0                       # number of replacements
system.cpu0.itb_walker_cache.tags.tagsinuse            0                       # Cycle average of tags in use
system.cpu0.itb_walker_cache.tags.total_refs            0                       # Total number of references to valid blocks.
system.cpu0.itb_walker_cache.tags.sampled_refs            0                       # Sample count of references to valid blocks.
system.cpu0.itb_walker_cache.tags.avg_refs          nan                       # Average number of references to valid blocks.
system.cpu0.itb_walker_cache.tags.warmup_cycle            0                       # Cycle when the warmup percentage was hit.
system.cpu0.itb_walker_cache.tags.tag_accesses            0                       # Number of tag accesses
system.cpu0.itb_walker_cache.tags.data_accesses            0                       # Number of data accesses
system.cpu0.itb_walker_cache.pwrStateResidencyTicks::UNDEFINED   4380643971                       # Cumulative time (in ticks) in various power states
system.cpu0.itb_walker_cache.blocked_cycles::no_mshrs            0                       # number of cycles access was blocked
system.cpu0.itb_walker_cache.blocked_cycles::no_targets            0                       # number of cycles access was blocked
system.cpu0.itb_walker_cache.blocked::no_mshrs            0                       # number of cycles access was blocked
system.cpu0.itb_walker_cache.blocked::no_targets            0                       # number of cycles access was blocked
system.cpu0.itb_walker_cache.avg_blocked_cycles::no_mshrs          nan                       # average number of cycles each access was blocked
system.cpu0.itb_walker_cache.avg_blocked_cycles::no_targets          nan                       # average number of cycles each access was blocked
system.cpu0.l2cache.tags.pwrStateResidencyTicks::UNDEFINED   4380643971                       # Cumulative time (in ticks) in various power states
system.cpu0.l2cache.tags.replacements             550                       # number of replacements
system.cpu0.l2cache.tags.tagsinuse        2754.373128                       # Cycle average of tags in use
system.cpu0.l2cache.tags.total_refs            203008                       # Total number of references to valid blocks.
system.cpu0.l2cache.tags.sampled_refs            3429                       # Sample count of references to valid blocks.
system.cpu0.l2cache.tags.avg_refs           59.203266                       # Average number of references to valid blocks.
system.cpu0.l2cache.tags.warmup_cycle           73000                       # Cycle when the warmup percentage was hit.
system.cpu0.l2cache.tags.occ_blocks::writebacks    79.906119                       # Average occupied blocks per requestor
system.cpu0.l2cache.tags.occ_blocks::cpu0.inst  1990.624863                       # Average occupied blocks per requestor
system.cpu0.l2cache.tags.occ_blocks::cpu0.data   683.842146                       # Average occupied blocks per requestor
system.cpu0.l2cache.tags.occ_percent::writebacks     0.019508                       # Average percentage of cache occupancy
system.cpu0.l2cache.tags.occ_percent::cpu0.inst     0.485992                       # Average percentage of cache occupancy
system.cpu0.l2cache.tags.occ_percent::cpu0.data     0.166954                       # Average percentage of cache occupancy
system.cpu0.l2cache.tags.occ_percent::total     0.672454                       # Average percentage of cache occupancy
system.cpu0.l2cache.tags.occ_task_id_blocks::1024         2879                       # Occupied blocks per task id
system.cpu0.l2cache.tags.age_task_id_blocks_1024::0            1                       # Occupied blocks per task id
system.cpu0.l2cache.tags.age_task_id_blocks_1024::1            3                       # Occupied blocks per task id
system.cpu0.l2cache.tags.age_task_id_blocks_1024::2           38                       # Occupied blocks per task id
system.cpu0.l2cache.tags.age_task_id_blocks_1024::3         2837                       # Occupied blocks per task id
system.cpu0.l2cache.tags.occ_task_id_percent::1024     0.702881                       # Percentage of cache occupancy per task id
system.cpu0.l2cache.tags.tag_accesses          829329                       # Number of tag accesses
system.cpu0.l2cache.tags.data_accesses         829329                       # Number of data accesses
system.cpu0.l2cache.pwrStateResidencyTicks::UNDEFINED   4380643971                       # Cumulative time (in ticks) in various power states
system.cpu0.l2cache.WritebackDirty_hits::writebacks          369                       # number of WritebackDirty hits
system.cpu0.l2cache.WritebackDirty_hits::total          369                       # number of WritebackDirty hits
system.cpu0.l2cache.WritebackClean_hits::writebacks       101553                       # number of WritebackClean hits
system.cpu0.l2cache.WritebackClean_hits::total       101553                       # number of WritebackClean hits
system.cpu0.l2cache.UpgradeReq_hits::cpu0.data           11                       # number of UpgradeReq hits
system.cpu0.l2cache.UpgradeReq_hits::total           11                       # number of UpgradeReq hits
system.cpu0.l2cache.ReadExReq_hits::cpu0.data            9                       # number of ReadExReq hits
system.cpu0.l2cache.ReadExReq_hits::total            9                       # number of ReadExReq hits
system.cpu0.l2cache.ReadCleanReq_hits::cpu0.inst       100893                       # number of ReadCleanReq hits
system.cpu0.l2cache.ReadCleanReq_hits::total       100893                       # number of ReadCleanReq hits
system.cpu0.l2cache.ReadSharedReq_hits::cpu0.data           97                       # number of ReadSharedReq hits
system.cpu0.l2cache.ReadSharedReq_hits::total           97                       # number of ReadSharedReq hits
system.cpu0.l2cache.demand_hits::cpu0.inst       100893                       # number of demand (read+write) hits
system.cpu0.l2cache.demand_hits::cpu0.data          106                       # number of demand (read+write) hits
system.cpu0.l2cache.demand_hits::total         100999                       # number of demand (read+write) hits
system.cpu0.l2cache.overall_hits::cpu0.inst       100893                       # number of overall hits
[...]
system.l3.demand_mshr_miss_latency::cpu1.inst    119450128                       # number of demand (read+write) MSHR miss cycles
system.l3.demand_mshr_miss_latency::cpu1.data     55056617                       # number of demand (read+write) MSHR miss cycles
system.l3.demand_mshr_miss_latency::cpu2.inst    115839260                       # number of demand (read+write) MSHR miss cycles
system.l3.demand_mshr_miss_latency::cpu2.data     54514395                       # number of demand (read+write) MSHR miss cycles
system.l3.demand_mshr_miss_latency::cpu3.inst    118051835                       # number of demand (read+write) MSHR miss cycles
system.l3.demand_mshr_miss_latency::cpu3.data     59326505                       # number of demand (read+write) MSHR miss cycles
system.l3.demand_mshr_miss_latency::total    692431696                       # number of demand (read+write) MSHR miss cycles
system.l3.overall_mshr_miss_latency::cpu0.inst    114442872                       # number of overall MSHR miss cycles
system.l3.overall_mshr_miss_latency::cpu0.data     55750084                       # number of overall MSHR miss cycles
system.l3.overall_mshr_miss_latency::cpu1.inst    119450128                       # number of overall MSHR miss cycles
system.l3.overall_mshr_miss_latency::cpu1.data     55056617                       # number of overall MSHR miss cycles
system.l3.overall_mshr_miss_latency::cpu2.inst    115839260                       # number of overall MSHR miss cycles
system.l3.overall_mshr_miss_latency::cpu2.data     54514395                       # number of overall MSHR miss cycles
system.l3.overall_mshr_miss_latency::cpu3.inst    118051835                       # number of overall MSHR miss cycles
system.l3.overall_mshr_miss_latency::cpu3.data     59326505                       # number of overall MSHR miss cycles
system.l3.overall_mshr_miss_latency::total    692431696                       # number of overall MSHR miss cycles
system.l3.ReadExReq_mshr_miss_rate::cpu0.data            1                       # mshr miss rate for ReadExReq accesses
system.l3.ReadExReq_mshr_miss_rate::cpu1.data            1                       # mshr miss rate for ReadExReq accesses
system.l3.ReadExReq_mshr_miss_rate::cpu2.data            1                       # mshr miss rate for ReadExReq accesses
system.l3.ReadExReq_mshr_miss_rate::cpu3.data            1                       # mshr miss rate for ReadExReq accesses
system.l3.ReadExReq_mshr_miss_rate::total            1                       # mshr miss rate for ReadExReq accesses
system.l3.ReadSharedReq_mshr_miss_rate::cpu0.inst     0.974403                       # mshr miss rate for ReadSharedReq accesses
system.l3.ReadSharedReq_mshr_miss_rate::cpu0.data     0.985663                       # mshr miss rate for ReadSharedReq accesses
system.l3.ReadSharedReq_mshr_miss_rate::cpu1.inst     0.978137                       # mshr miss rate for ReadSharedReq accesses
system.l3.ReadSharedReq_mshr_miss_rate::cpu1.data     0.980427                       # mshr miss rate for ReadSharedReq accesses
system.l3.ReadSharedReq_mshr_miss_rate::cpu2.inst     0.978137                       # mshr miss rate for ReadSharedReq accesses
system.l3.ReadSharedReq_mshr_miss_rate::cpu2.data     0.984043                       # mshr miss rate for ReadSharedReq accesses
system.l3.ReadSharedReq_mshr_miss_rate::cpu3.inst     0.978289                       # mshr miss rate for ReadSharedReq accesses
system.l3.ReadSharedReq_mshr_miss_rate::cpu3.data     0.992870                       # mshr miss rate for ReadSharedReq accesses
system.l3.ReadSharedReq_mshr_miss_rate::total     0.978910                       # mshr miss rate for ReadSharedReq accesses
system.l3.demand_mshr_miss_rate::cpu0.inst     0.974403                       # mshr miss rate for demand accesses
system.l3.demand_mshr_miss_rate::cpu0.data     0.992063                       # mshr miss rate for demand accesses
system.l3.demand_mshr_miss_rate::cpu1.inst     0.978137                       # mshr miss rate for demand accesses
system.l3.demand_mshr_miss_rate::cpu1.data     0.989130                       # mshr miss rate for demand accesses
system.l3.demand_mshr_miss_rate::cpu2.inst     0.978137                       # mshr miss rate for demand accesses
system.l3.demand_mshr_miss_rate::cpu2.data     0.991133                       # mshr miss rate for demand accesses
system.l3.demand_mshr_miss_rate::cpu3.inst     0.978289                       # mshr miss rate for demand accesses
system.l3.demand_mshr_miss_rate::cpu3.data     0.996032                       # mshr miss rate for demand accesses
system.l3.demand_mshr_miss_rate::total       0.981777                       # mshr miss rate for demand accesses
system.l3.overall_mshr_miss_rate::cpu0.inst     0.974403                       # mshr miss rate for overall accesses
system.l3.overall_mshr_miss_rate::cpu0.data     0.992063                       # mshr miss rate for overall accesses
system.l3.overall_mshr_miss_rate::cpu1.inst     0.978137                       # mshr miss rate for overall accesses
system.l3.overall_mshr_miss_rate::cpu1.data     0.989130                       # mshr miss rate for overall accesses
system.l3.overall_mshr_miss_rate::cpu2.inst     0.978137                       # mshr miss rate for overall accesses
system.l3.overall_mshr_miss_rate::cpu2.data     0.991133                       # mshr miss rate for overall accesses
system.l3.overall_mshr_miss_rate::cpu3.inst     0.978289                       # mshr miss rate for overall accesses
system.l3.overall_mshr_miss_rate::cpu3.data     0.996032                       # mshr miss rate for overall accesses
system.l3.overall_mshr_miss_rate::total      0.981777                       # mshr miss rate for overall accesses
system.l3.ReadExReq_avg_mshr_miss_latency::cpu0.data 51376.077778                       # average ReadExReq mshr miss latency
system.l3.ReadExReq_avg_mshr_miss_latency::cpu1.data 47195.942222                       # average ReadExReq mshr miss latency
system.l3.ReadExReq_avg_mshr_miss_latency::cpu2.data 50131.702882                       # average ReadExReq mshr miss latency
system.l3.ReadExReq_avg_mshr_miss_latency::cpu3.data 51080.814318                       # average ReadExReq mshr miss latency
system.l3.ReadExReq_avg_mshr_miss_latency::total 49944.344271                       # average ReadExReq mshr miss latency
system.l3.ReadSharedReq_avg_mshr_miss_latency::cpu0.inst 50954.083704                       # average ReadSharedReq mshr miss latency
system.l3.ReadSharedReq_avg_mshr_miss_latency::cpu0.data 59328.816364                       # average ReadSharedReq mshr miss latency
system.l3.ReadSharedReq_avg_mshr_miss_latency::cpu1.inst 53397.464461                       # average ReadSharedReq mshr miss latency
system.l3.ReadSharedReq_avg_mshr_miss_latency::cpu1.data 61376.484574                       # average ReadSharedReq mshr miss latency
system.l3.ReadSharedReq_avg_mshr_miss_latency::cpu2.inst 51783.308002                       # average ReadSharedReq mshr miss latency
system.l3.ReadSharedReq_avg_mshr_miss_latency::cpu2.data 57486.481081                       # average ReadSharedReq mshr miss latency
system.l3.ReadSharedReq_avg_mshr_miss_latency::cpu3.inst 52397.618731                       # average ReadSharedReq mshr miss latency
system.l3.ReadSharedReq_avg_mshr_miss_latency::cpu3.data 65517.739677                       # average ReadSharedReq mshr miss latency
system.l3.ReadSharedReq_avg_mshr_miss_latency::total 53873.749777                       # average ReadSharedReq mshr miss latency
system.l3.demand_avg_mshr_miss_latency::cpu0.inst 50954.083704                       # average overall mshr miss latency
system.l3.demand_avg_mshr_miss_latency::cpu0.data 55750.084000                       # average overall mshr miss latency
system.l3.demand_avg_mshr_miss_latency::cpu1.inst 53397.464461                       # average overall mshr miss latency
system.l3.demand_avg_mshr_miss_latency::cpu1.data 55001.615385                       # average overall mshr miss latency
system.l3.demand_avg_mshr_miss_latency::cpu2.inst 51783.308002                       # average overall mshr miss latency
system.l3.demand_avg_mshr_miss_latency::cpu2.data 54189.259443                       # average overall mshr miss latency
system.l3.demand_avg_mshr_miss_latency::cpu3.inst 52397.618731                       # average overall mshr miss latency
system.l3.demand_avg_mshr_miss_latency::cpu3.data 59090.144422                       # average overall mshr miss latency
system.l3.demand_avg_mshr_miss_latency::total 53329.613062                       # average overall mshr miss latency
system.l3.overall_avg_mshr_miss_latency::cpu0.inst 50954.083704                       # average overall mshr miss latency
system.l3.overall_avg_mshr_miss_latency::cpu0.data 55750.084000                       # average overall mshr miss latency
system.l3.overall_avg_mshr_miss_latency::cpu1.inst 53397.464461                       # average overall mshr miss latency
system.l3.overall_avg_mshr_miss_latency::cpu1.data 55001.615385                       # average overall mshr miss latency
system.l3.overall_avg_mshr_miss_latency::cpu2.inst 51783.308002                       # average overall mshr miss latency
system.l3.overall_avg_mshr_miss_latency::cpu2.data 54189.259443                       # average overall mshr miss latency
system.l3.overall_avg_mshr_miss_latency::cpu3.inst 52397.618731                       # average overall mshr miss latency
system.l3.overall_avg_mshr_miss_latency::cpu3.data 59090.144422                       # average overall mshr miss latency
system.l3.overall_avg_mshr_miss_latency::total 53329.613062                       # average overall mshr miss latency
system.membus.snoop_filter.tot_requests         12984                       # Total number of requests made to the snoop filter.
system.membus.snoop_filter.hit_single_requests            0                       # Number of requests hitting in the snoop filter with a single holder of the requested data.
system.membus.snoop_filter.hit_multi_requests            0                       # Number of requests hitting in the snoop filter with multiple (>1) holders of the requested data.
system.membus.snoop_filter.tot_snoops               0                       # Total number of snoops made to the snoop filter.
system.membus.snoop_filter.hit_single_snoops            0                       # Number of snoops hitting in the snoop filter with a single holder of the requested data.
system.membus.snoop_filter.hit_multi_snoops            0                       # Number of snoops hitting in the snoop filter with multiple (>1) holders of the requested data.
system.membus.pwrStateResidencyTicks::UNDEFINED   4380643971                       # Cumulative time (in ticks) in various power states
system.membus.trans_dist::ReadResp              11186                       # Transaction distribution
system.membus.trans_dist::ReadExReq              1798                       # Transaction distribution
system.membus.trans_dist::ReadExResp             1798                       # Transaction distribution
system.membus.trans_dist::ReadSharedReq         11186                       # Transaction distribution
system.membus.pkt_count_system.l3.mem_side::system.mem_ctrls.port        25968                       # Packet count per connected master and slave (bytes)
system.membus.pkt_count_system.l3.mem_side::total        25968                       # Packet count per connected master and slave (bytes)
system.membus.pkt_count::total                  25968                       # Packet count per connected master and slave (bytes)
system.membus.pkt_size_system.l3.mem_side::system.mem_ctrls.port       830976                       # Cumulative packet size per connected master and slave (bytes)
system.membus.pkt_size_system.l3.mem_side::total       830976                       # Cumulative packet size per connected master and slave (bytes)
system.membus.pkt_size::total                  830976                       # Cumulative packet size per connected master and slave (bytes)
system.membus.snoops                                0                       # Total snoops (count)
system.membus.snoopTraffic                          0                       # Total snoop traffic (bytes)
system.membus.snoop_fanout::samples             12984                       # Request fanout histogram
system.membus.snoop_fanout::mean                    0                       # Request fanout histogram
system.membus.snoop_fanout::stdev                   0                       # Request fanout histogram
system.membus.snoop_fanout::underflows              0      0.00%      0.00% # Request fanout histogram
system.membus.snoop_fanout::0                   12984    100.00%    100.00% # Request fanout histogram
system.membus.snoop_fanout::1                       0      0.00%    100.00% # Request fanout histogram
system.membus.snoop_fanout::overflows               0      0.00%    100.00% # Request fanout histogram
system.membus.snoop_fanout::min_value               0                       # Request fanout histogram
system.membus.snoop_fanout::max_value               0                       # Request fanout histogram
system.membus.snoop_fanout::total               12984                       # Request fanout histogram
system.membus.reqLayer8.occupancy            16911317                       # Layer occupancy (ticks)
system.membus.reqLayer8.utilization               0.4                       # Layer utilization (%)
system.membus.respLayer1.occupancy           68818974                       # Layer occupancy (ticks)
system.membus.respLayer1.utilization              1.6                       # Layer utilization (%)
system.tol3bus.snoop_filter.tot_requests        14542                       # Total number of requests made to the snoop filter.
system.tol3bus.snoop_filter.hit_single_requests         1320                       # Number of requests hitting in the snoop filter with a single holder of the requested data.
system.tol3bus.snoop_filter.hit_multi_requests            0                       # Number of requests hitting in the snoop filter with multiple (>1) holders of the requested data.
system.tol3bus.snoop_filter.tot_snoops              0                       # Total number of snoops made to the snoop filter.
system.tol3bus.snoop_filter.hit_single_snoops            0                       # Number of snoops hitting in the snoop filter with a single holder of the requested data.
system.tol3bus.snoop_filter.hit_multi_snoops            0                       # Number of snoops hitting in the snoop filter with multiple (>1) holders of the requested data.
system.tol3bus.pwrStateResidencyTicks::UNDEFINED   4380643971                       # Cumulative time (in ticks) in various power states
system.tol3bus.trans_dist::ReadResp             11427                       # Transaction distribution
system.tol3bus.trans_dist::WritebackDirty          163                       # Transaction distribution
system.tol3bus.trans_dist::CleanEvict            1151                       # Transaction distribution
system.tol3bus.trans_dist::UpgradeReq               3                       # Transaction distribution
system.tol3bus.trans_dist::UpgradeResp              3                       # Transaction distribution
system.tol3bus.trans_dist::ReadExReq             1798                       # Transaction distribution
system.tol3bus.trans_dist::ReadExResp            1798                       # Transaction distribution
system.tol3bus.trans_dist::ReadSharedReq        11427                       # Transaction distribution
system.tol3bus.pkt_count_system.cpu0.l2cache.mem_side::system.l3.cpu_side         6978                       # Packet count per connected master and slave (bytes)
system.tol3bus.pkt_count_system.cpu1.l2cache.mem_side::system.l3.cpu_side         6890                       # Packet count per connected master and slave (bytes)
system.tol3bus.pkt_count_system.cpu2.l2cache.mem_side::system.l3.cpu_side         6934                       # Packet count per connected master and slave (bytes)
system.tol3bus.pkt_count_system.cpu3.l2cache.mem_side::system.l3.cpu_side         6968                       # Packet count per connected master and slave (bytes)
system.tol3bus.pkt_count::total                 27770                       # Packet count per connected master and slave (bytes)
system.tol3bus.pkt_size_system.cpu0.l2cache.mem_side::system.l3.cpu_side       215616                       # Cumulative packet size per connected master and slave (bytes)
system.tol3bus.pkt_size_system.cpu1.l2cache.mem_side::system.l3.cpu_side       212736                       # Cumulative packet size per connected master and slave (bytes)
system.tol3bus.pkt_size_system.cpu2.l2cache.mem_side::system.l3.cpu_side       213440                       # Cumulative packet size per connected master and slave (bytes)
system.tol3bus.pkt_size_system.cpu3.l2cache.mem_side::system.l3.cpu_side       215040                       # Cumulative packet size per connected master and slave (bytes)
system.tol3bus.pkt_size::total                 856832                       # Cumulative packet size per connected master and slave (bytes)
system.tol3bus.snoops                               0                       # Total snoops (count)
system.tol3bus.snoopTraffic                         0                       # Total snoop traffic (bytes)
system.tol3bus.snoop_fanout::samples            13228                       # Request fanout histogram
system.tol3bus.snoop_fanout::mean                   0                       # Request fanout histogram
system.tol3bus.snoop_fanout::stdev                  0                       # Request fanout histogram
system.tol3bus.snoop_fanout::underflows             0      0.00%      0.00% # Request fanout histogram
system.tol3bus.snoop_fanout::0                  13228    100.00%    100.00% # Request fanout histogram
system.tol3bus.snoop_fanout::1                      0      0.00%    100.00% # Request fanout histogram
system.tol3bus.snoop_fanout::2                      0      0.00%    100.00% # Request fanout histogram
system.tol3bus.snoop_fanout::3                      0      0.00%    100.00% # Request fanout histogram
system.tol3bus.snoop_fanout::4                      0      0.00%    100.00% # Request fanout histogram
system.tol3bus.snoop_fanout::overflows              0      0.00%    100.00% # Request fanout histogram
system.tol3bus.snoop_fanout::min_value              0                       # Request fanout histogram
system.tol3bus.snoop_fanout::max_value              0                       # Request fanout histogram
system.tol3bus.snoop_fanout::total              13228                       # Request fanout histogram
system.tol3bus.reqLayer0.occupancy           21168059                       # Layer occupancy (ticks)
system.tol3bus.reqLayer0.utilization              0.5                       # Layer utilization (%)
system.tol3bus.respLayer0.occupancy          10526349                       # Layer occupancy (ticks)
system.tol3bus.respLayer0.utilization             0.2                       # Layer utilization (%)
system.tol3bus.respLayer1.occupancy          10480867                       # Layer occupancy (ticks)
system.tol3bus.respLayer1.utilization             0.2                       # Layer utilization (%)
system.tol3bus.respLayer2.occupancy          10472994                       # Layer occupancy (ticks)
system.tol3bus.respLayer2.utilization             0.2                       # Layer utilization (%)
system.tol3bus.respLayer3.occupancy          10519539                       # Layer occupancy (ticks)
system.tol3bus.respLayer3.utilization             0.2                       # Layer utilization (%)

---------- End Simulation Statistics   ----------
