
---------- Begin Simulation Statistics ----------
sim_seconds                                  0.000411                       # Number of seconds simulated
sim_ticks                                   411121467                       # Number of ticks simulated
final_tick                                  411121467                       # Number of ticks from beginning of simulation (restored from checkpoints and never reset)
sim_freq                                 1000000000000                       # Frequency of simulated ticks
host_inst_rate                                  79649                       # Simulator instruction rate (inst/s)
host_op_rate                                   222265                       # Simulator op (including micro ops) rate (op/s)
host_tick_rate                               41675444                       # Simulator tick rate (ticks/s)
host_mem_usage                               33828712                       # Number of bytes of host memory used
host_seconds                                     9.86                       # Real time elapsed on the host
sim_insts                                      785724                       # Number of instructions simulated
sim_ops                                       2192608                       # Number of ops (including micro ops) simulated
system.voltage_domain.voltage                       1                       # Voltage in Volts
system.clk_domain.clock                          1000                       # Clock period in ticks
system.mem_ctrls.pwrStateResidencyTicks::UNDEFINED    411121467                       # Cumulative time (in ticks) in various power states
system.mem_ctrls.bytes_read::cpu0.inst          48960                       # Number of bytes read from this memory
system.mem_ctrls.bytes_read::cpu0.data         376576                       # Number of bytes read from this memory
system.mem_ctrls.bytes_read::cpu1.inst          48768                       # Number of bytes read from this memory
system.mem_ctrls.bytes_read::cpu1.data         381312                       # Number of bytes read from this memory
system.mem_ctrls.bytes_read::cpu2.inst          49024                       # Number of bytes read from this memory
system.mem_ctrls.bytes_read::cpu2.data         381760                       # Number of bytes read from this memory
system.mem_ctrls.bytes_read::cpu3.inst          48640                       # Number of bytes read from this memory
system.mem_ctrls.bytes_read::cpu3.data         375808                       # Number of bytes read from this memory
system.mem_ctrls.bytes_read::total            1710848                       # Number of bytes read from this memory
system.mem_ctrls.bytes_inst_read::cpu0.inst        48960                       # Number of instructions bytes read from this memory
system.mem_ctrls.bytes_inst_read::cpu1.inst        48768                       # Number of instructions bytes read from this memory
system.mem_ctrls.bytes_inst_read::cpu2.inst        49024                       # Number of instructions bytes read from this memory
system.mem_ctrls.bytes_inst_read::cpu3.inst        48640                       # Number of instructions bytes read from this memory
system.mem_ctrls.bytes_inst_read::total        195392                       # Number of instructions bytes read from this memory
system.mem_ctrls.bytes_written::writebacks         8576                       # Number of bytes written to this memory
system.mem_ctrls.bytes_written::total            8576                       # Number of bytes written to this memory
system.mem_ctrls.num_reads::cpu0.inst             765                       # Number of read requests responded to by this memory
system.mem_ctrls.num_reads::cpu0.data            5884                       # Number of read requests responded to by this memory
system.mem_ctrls.num_reads::cpu1.inst             762                       # Number of read requests responded to by this memory
system.mem_ctrls.num_reads::cpu1.data            5958                       # Number of read requests responded to by this memory
system.mem_ctrls.num_reads::cpu2.inst             766                       # Number of read requests responded to by this memory
system.mem_ctrls.num_reads::cpu2.data            5965                       # Number of read requests responded to by this memory
system.mem_ctrls.num_reads::cpu3.inst             760                       # Number of read requests responded to by this memory
system.mem_ctrls.num_reads::cpu3.data            5872                       # Number of read requests responded to by this memory
system.mem_ctrls.num_reads::total               26732                       # Number of read requests responded to by this memory
system.mem_ctrls.num_writes::writebacks           134                       # Number of write requests responded to by this memory
system.mem_ctrls.num_writes::total                134                       # Number of write requests responded to by this memory
system.mem_ctrls.bw_read::cpu0.inst         119088892                       # Total read bandwidth from this memory (bytes/s)
system.mem_ctrls.bw_read::cpu0.data         915972602                       # Total read bandwidth from this memory (bytes/s)
system.mem_ctrls.bw_read::cpu1.inst         118621877                       # Total read bandwidth from this memory (bytes/s)
system.mem_ctrls.bw_read::cpu1.data         927492312                       # Total read bandwidth from this memory (bytes/s)
system.mem_ctrls.bw_read::cpu2.inst         119244564                       # Total read bandwidth from this memory (bytes/s)
system.mem_ctrls.bw_read::cpu2.data         928582014                       # Total read bandwidth from this memory (bytes/s)
system.mem_ctrls.bw_read::cpu3.inst         118310533                       # Total read bandwidth from this memory (bytes/s)
system.mem_ctrls.bw_read::cpu3.data         914104541                       # Total read bandwidth from this memory (bytes/s)
system.mem_ctrls.bw_read::total            4161417336                       # Total read bandwidth from this memory (bytes/s)
system.mem_ctrls.bw_inst_read::cpu0.inst    119088892                       # Instruction read bandwidth from this memory (bytes/s)
system.mem_ctrls.bw_inst_read::cpu1.inst    118621877                       # Instruction read bandwidth from this memory (bytes/s)
system.mem_ctrls.bw_inst_read::cpu2.inst    119244564                       # Instruction read bandwidth from this memory (bytes/s)
system.mem_ctrls.bw_inst_read::cpu3.inst    118310533                       # Instruction read bandwidth from this memory (bytes/s)
system.mem_ctrls.bw_inst_read::total        475265866                       # Instruction read bandwidth from this memory (bytes/s)
system.mem_ctrls.bw_write::writebacks        20860015                       # Write bandwidth from this memory (bytes/s)
system.mem_ctrls.bw_write::total             20860015                       # Write bandwidth from this memory (bytes/s)
system.mem_ctrls.bw_total::writebacks        20860015                       # Total bandwidth to/from this memory (bytes/s)
system.mem_ctrls.bw_total::cpu0.inst        119088892                       # Total bandwidth to/from this memory (bytes/s)
system.mem_ctrls.bw_total::cpu0.data        915972602                       # Total bandwidth to/from this memory (bytes/s)
system.mem_ctrls.bw_total::cpu1.inst        118621877                       # Total bandwidth to/from this memory (bytes/s)
system.mem_ctrls.bw_total::cpu1.data        927492312                       # Total bandwidth to/from this memory (bytes/s)
system.mem_ctrls.bw_total::cpu2.inst        119244564                       # Total bandwidth to/from this memory (bytes/s)
system.mem_ctrls.bw_total::cpu2.data        928582014                       # Total bandwidth to/from this memory (bytes/s)
system.mem_ctrls.bw_total::cpu3.inst        118310533                       # Total bandwidth to/from this memory (bytes/s)
system.mem_ctrls.bw_total::cpu3.data        914104541                       # Total bandwidth to/from this memory (bytes/s)
system.mem_ctrls.bw_total::total           4182277351                       # Total bandwidth to/from this memory (bytes/s)
system.pwrStateResidencyTicks::UNDEFINED    411121467                       # Cumulative time (in ticks) in various power states
system.cpu0.branchPred.lookups                  37865                       # Number of BP lookups
system.cpu0.branchPred.condPredicted            37865                       # Number of conditional branches predicted
system.cpu0.branchPred.condIncorrect             2310                       # Number of conditional branches incorrect
system.cpu0.branchPred.BTBLookups               32343                       # Number of BTB lookups
system.cpu0.branchPred.BTBHits                      0                       # Number of BTB hits
system.cpu0.branchPred.BTBCorrect                   0                       # Number of correct BTB predictions (this stat may not work properly.
system.cpu0.branchPred.BTBHitPct             0.000000                       # BTB Hit Percentage
system.cpu0.branchPred.usedRAS                   4622                       # Number of times the RAS was used to get a target.
system.cpu0.branchPred.RASInCorrect               312                       # Number of incorrect RAS predictions.
system.cpu0.branchPred.indirectLookups          32343                       # Number of indirect predictor lookups.
system.cpu0.branchPred.indirectHits             12334                       # Number of indirect target hits.
system.cpu0.branchPred.indirectMisses           20009                       # Number of indirect misses.
system.cpu0.branchPredindirectMispredicted         1738                       # Number of mispredicted indirect branches.
system.cpu_voltage_domain.voltage                   1                       # Voltage in Volts
system.cpu_clk_domain.clock                       333                       # Clock period in ticks
system.cpu0.dtb.walker.pwrStateResidencyTicks::UNDEFINED    411121467                       # Cumulative time (in ticks) in various power states
system.cpu0.dtb.rdAccesses                      32015                       # TLB accesses on read requests
system.cpu0.dtb.wrAccesses                      57710                       # TLB accesses on write requests
system.cpu0.dtb.rdMisses                          266                       # TLB misses on read requests
system.cpu0.dtb.wrMisses                          544                       # TLB misses on write requests
system.cpu0.apic_clk_domain.clock                5328                       # Clock period in ticks
system.cpu0.interrupts.pwrStateResidencyTicks::UNDEFINED    411121467                       # Cumulative time (in ticks) in various power states
system.cpu0.itb.walker.pwrStateResidencyTicks::UNDEFINED    411121467                       # Cumulative time (in ticks) in various power states
system.cpu0.itb.rdAccesses                          0                       # TLB accesses on read requests
system.cpu0.itb.wrAccesses                      35038                       # TLB accesses on write requests
system.cpu0.itb.rdMisses                            0                       # TLB misses on read requests
system.cpu0.itb.wrMisses                          163                       # TLB misses on write requests
system.cpu0.workload.numSyscalls                   26                       # Number of system calls
system.cpu0.pwrStateResidencyTicks::ON      411121467                       # Cumulative time (in ticks) in various power states
system.cpu0.numCycles                         1234600                       # number of cpu cycles simulated
system.cpu0.numWorkItemsStarted                     0                       # number of work items this cpu started
system.cpu0.numWorkItemsCompleted                   0                       # number of work items this cpu completed
system.cpu0.fetch.icacheStallCycles             58837                       # Number of cycles fetch is stalled on an Icache miss
system.cpu0.fetch.Insts                        244711                       # Number of instructions fetch has processed
system.cpu0.fetch.Branches                      37865                       # Number of branches that fetch encountered
system.cpu0.fetch.predictedBranches             16956                       # Number of branches that fetch has predicted taken
system.cpu0.fetch.Cycles                      1107078                       # Number of cycles fetch has run and was not squashing or blocked
system.cpu0.fetch.SquashCycles                   4808                       # Number of cycles fetch has spent squashing
system.cpu0.fetch.MiscStallCycles                  75                       # Number of cycles fetch has spent waiting on interrupts, or bad addresses, or out of MSHRs
system.cpu0.fetch.PendingTrapStallCycles          492                       # Number of stall cycles due to pending traps
system.cpu0.fetch.PendingQuiesceStallCycles            6                       # Number of stall cycles due to pending quiesce instructions
system.cpu0.fetch.IcacheWaitRetryStallCycles           87                       # Number of stall cycles due to full MSHR
system.cpu0.fetch.CacheLines                    34939                       # Number of cache lines fetched
system.cpu0.fetch.IcacheSquashes                  965                       # Number of outstanding Icache misses that were squashed
system.cpu0.fetch.rateDist::samples           1168979                       # Number of instructions fetched each cycle (Total)
system.cpu0.fetch.rateDist::mean             0.546119                       # Number of instructions fetched each cycle (Total)
system.cpu0.fetch.rateDist::stdev            1.907475                       # Number of instructions fetched each cycle (Total)
system.cpu0.fetch.rateDist::underflows              0      0.00%      0.00% # Number of instructions fetched each cycle (Total)
system.cpu0.fetch.rateDist::0                 1068840     91.43%     91.43% # Number of instructions fetched each cycle (Total)
system.cpu0.fetch.rateDist::1                    4557      0.39%     91.82% # Number of instructions fetched each cycle (Total)
system.cpu0.fetch.rateDist::2                    7307      0.63%     92.45% # Number of instructions fetched each cycle (Total)
system.cpu0.fetch.rateDist::3                    4447      0.38%     92.83% # Number of instructions fetched each cycle (Total)
system.cpu0.fetch.rateDist::4                    7624      0.65%     93.48% # Number of instructions fetched each cycle (Total)
system.cpu0.fetch.rateDist::5                    4479      0.38%     93.86% # Number of instructions fetched each cycle (Total)
system.cpu0.fetch.rateDist::6                    7887      0.67%     94.54% # Number of instructions fetched each cycle (Total)
system.cpu0.fetch.rateDist::7                    5027      0.43%     94.97% # Number of instructions fetched each cycle (Total)
system.cpu0.fetch.rateDist::8                   58811      5.03%    100.00% # Number of instructions fetched each cycle (Total)
system.cpu0.fetch.rateDist::overflows               0      0.00%    100.00% # Number of instructions fetched each cycle (Total)
system.cpu0.fetch.rateDist::min_value               0                       # Number of instructions fetched each cycle (Total)
system.cpu0.fetch.rateDist::max_value               8                       # Number of instructions fetched each cycle (Total)
system.cpu0.fetch.rateDist::total             1168979                       # Number of instructions fetched each cycle (Total)
system.cpu0.fetch.branchRate                 0.030670                       # Number of branch fetches per cycle
system.cpu0.fetch.rate                       0.198211                       # Number of inst fetches per cycle
system.cpu0.decode.IdleCycles                   48203                       # Number of cycles decode is idle
system.cpu0.decode.BlockedCycles              1037391                       # Number of cycles decode is blocked
system.cpu0.decode.RunCycles                    35661                       # Number of cycles decode is running
system.cpu0.decode.UnblockCycles                45320                       # Number of cycles decode is unblocking
system.cpu0.decode.SquashCycles                  2404                       # Number of cycles decode is squashing
system.cpu0.decode.DecodedInsts                623298                       # Number of instructions handled by decode
system.cpu0.rename.SquashCycles                  2404                       # Number of cycles rename is squashing
system.cpu0.rename.IdleCycles                   61866                       # Number of cycles rename is idle
system.cpu0.rename.BlockCycles                 339847                       # Number of cycles rename is blocking
system.cpu0.rename.serializeStallCycles          3502                       # count of cycles rename stalled for serializing inst
system.cpu0.rename.RunCycles                    67096                       # Number of cycles rename is running
system.cpu0.rename.UnblockCycles               694264                       # Number of cycles rename is unblocking
system.cpu0.rename.RenamedInsts                614572                       # Number of instructions processed by rename
system.cpu0.rename.ROBFullEvents                   73                       # Number of times rename has blocked due to ROB full
system.cpu0.rename.IQFullEvents                 60487                       # Number of times rename has blocked due to IQ full
system.cpu0.rename.LQFullEvents                   121                       # Number of times rename has blocked due to LQ full
system.cpu0.rename.SQFullEvents                628776                       # Number of times rename has blocked due to SQ full
system.cpu0.rename.RenamedOperands             821031                       # Number of destination operands rename has renamed
system.cpu0.rename.RenameLookups              1901202                       # Number of register rename lookups that rename has made
system.cpu0.rename.int_rename_lookups         1227426                       # Number of integer rename lookups
system.cpu0.rename.fp_rename_lookups            35067                       # Number of floating rename lookups
system.cpu0.rename.CommittedMaps               741169                       # Number of HB maps that are committed
system.cpu0.rename.UndoneMaps                   79797                       # Number of HB maps that are undone due to squashing
system.cpu0.rename.serializingInsts                81                       # count of serializing insts renamed
system.cpu0.rename.tempSerializingInsts            78                       # count of temporary serializing insts renamed
system.cpu0.rename.skidInsts                   204508                       # count of insts added to the skid buffer
system.cpu0.memDep0.insertedLoads               34813                       # Number of loads inserted to the mem dependence unit.
system.cpu0.memDep0.insertedStores              60734                       # Number of stores inserted to the mem dependence unit.
system.cpu0.memDep0.conflictingLoads              516                       # Number of conflicting loads.
system.cpu0.memDep0.conflictingStores            1355                       # Number of conflicting stores.
system.cpu0.iq.iqInstsAdded                    598392                       # Number of instructions added to the IQ (excludes non-spec)
system.cpu0.iq.iqNonSpecInstsAdded                355                       # Number of non-speculative instructions added to the IQ
system.cpu0.iq.iqInstsIssued                   580415                       # Number of instructions issued
system.cpu0.iq.iqSquashedInstsIssued              726                       # Number of squashed instructions issued
system.cpu0.iq.iqSquashedInstsExamined          57087                       # Number of squashed instructions iterated over during squash; mainly for profiling
system.cpu0.iq.iqSquashedOperandsExamined        76154                       # Number of squashed operands that are examined and possibly removed from graph
system.cpu0.iq.iqSquashedNonSpecRemoved           317                       # Number of squashed non-spec instructions that were removed
system.cpu0.iq.issued_per_cycle::samples      1168979                       # Number of insts issued each cycle
system.cpu0.iq.issued_per_cycle::mean        0.496514                       # Number of insts issued each cycle
system.cpu0.iq.issued_per_cycle::stdev       1.201883                       # Number of insts issued each cycle
system.cpu0.iq.issued_per_cycle::underflows            0      0.00%      0.00% # Number of insts issued each cycle
system.cpu0.iq.issued_per_cycle::0             925927     79.21%     79.21% # Number of insts issued each cycle
system.cpu0.iq.issued_per_cycle::1              91152      7.80%     87.01% # Number of insts issued each cycle
system.cpu0.iq.issued_per_cycle::2              64474      5.52%     92.52% # Number of insts issued each cycle
system.cpu0.iq.issued_per_cycle::3              37082      3.17%     95.69% # Number of insts issued each cycle
system.cpu0.iq.issued_per_cycle::4              23118      1.98%     97.67% # Number of insts issued each cycle
system.cpu0.iq.issued_per_cycle::5              14504      1.24%     98.91% # Number of insts issued each cycle
system.cpu0.iq.issued_per_cycle::6               6402      0.55%     99.46% # Number of insts issued each cycle
system.cpu0.iq.issued_per_cycle::7               4895      0.42%     99.88% # Number of insts issued each cycle
system.cpu0.iq.issued_per_cycle::8               1425      0.12%    100.00% # Number of insts issued each cycle
system.cpu0.iq.issued_per_cycle::overflows            0      0.00%    100.00% # Number of insts issued each cycle
system.cpu0.iq.issued_per_cycle::min_value            0                       # Number of insts issued each cycle
system.cpu0.iq.issued_per_cycle::max_value            8                       # Number of insts issued each cycle
system.cpu0.iq.issued_per_cycle::total        1168979                       # Number of insts issued each cycle
system.cpu0.iq.fu_full::No_OpClass                  0      0.00%      0.00% # attempts to use FU when none available
system.cpu0.iq.fu_full::IntAlu                   2098     87.38%     87.38% # attempts to use FU when none available
system.cpu0.iq.fu_full::IntMult                     0      0.00%     87.38% # attempts to use FU when none available
system.cpu0.iq.fu_full::IntDiv                      0      0.00%     87.38% # attempts to use FU when none available
system.cpu0.iq.fu_full::FloatAdd                   13      0.54%     87.92% # attempts to use FU when none available
system.cpu0.iq.fu_full::FloatCmp                    0      0.00%     87.92% # attempts to use FU when none available
system.cpu0.iq.fu_full::FloatCvt                    0      0.00%     87.92% # attempts to use FU when none available
system.cpu0.iq.fu_full::FloatMult                   0      0.00%     87.92% # attempts to use FU when none available
system.cpu0.iq.fu_full::FloatMultAcc                0      0.00%     87.92% # attempts to use FU when none available
system.cpu0.iq.fu_full::FloatDiv                    0      0.00%     87.92% # attempts to use FU when none available
system.cpu0.iq.fu_full::FloatMisc                   0      0.00%     87.92% # attempts to use FU when none available
system.cpu0.iq.fu_full::FloatSqrt                   0      0.00%     87.92% # attempts to use FU when none available
system.cpu0.iq.fu_full::SimdAdd                     0      0.00%     87.92% # attempts to use FU when none available
system.cpu0.iq.fu_full::SimdAddAcc                  0      0.00%     87.92% # attempts to use FU when none available
system.cpu0.iq.fu_full::SimdAlu                     0      0.00%     87.92% # attempts to use FU when none available
system.cpu0.iq.fu_full::SimdCmp                     0      0.00%     87.92% # attempts to use FU when none available
system.cpu0.iq.fu_full::SimdCvt                     0      0.00%     87.92% # attempts to use FU when none available
system.cpu0.iq.fu_full::SimdMisc                    0      0.00%     87.92% # attempts to use FU when none available
system.cpu0.iq.fu_full::SimdMult                    0      0.00%     87.92% # attempts to use FU when none available
system.cpu0.iq.fu_full::SimdMultAcc                 0      0.00%     87.92% # attempts to use FU when none available
system.cpu0.iq.fu_full::SimdShift                   0      0.00%     87.92% # attempts to use FU when none available
system.cpu0.iq.fu_full::SimdShiftAcc                0      0.00%     87.92% # attempts to use FU when none available
system.cpu0.iq.fu_full::SimdSqrt                    0      0.00%     87.92% # attempts to use FU when none available
system.cpu0.iq.fu_full::SimdFloatAdd                0      0.00%     87.92% # attempts to use FU when none available
system.cpu0.iq.fu_full::SimdFloatAlu                0      0.00%     87.92% # attempts to use FU when none available
system.cpu0.iq.fu_full::SimdFloatCmp                0      0.00%     87.92% # attempts to use FU when none available
system.cpu0.iq.fu_full::SimdFloatCvt                0      0.00%     87.92% # attempts to use FU when none available
system.cpu0.iq.fu_full::SimdFloatDiv                0      0.00%     87.92% # attempts to use FU when none available
system.cpu0.iq.fu_full::SimdFloatMisc               0      0.00%     87.92% # attempts to use FU when none available
system.cpu0.iq.fu_full::SimdFloatMult               0      0.00%     87.92% # attempts to use FU when none available
system.cpu0.iq.fu_full::SimdFloatMultAcc            0      0.00%     87.92% # attempts to use FU when none available
system.cpu0.iq.fu_full::SimdFloatSqrt               0      0.00%     87.92% # attempts to use FU when none available
system.cpu0.iq.fu_full::MemRead                    62      2.58%     90.50% # attempts to use FU when none available
system.cpu0.iq.fu_full::MemWrite                   86      3.58%     94.09% # attempts to use FU when none available
system.cpu0.iq.fu_full::FloatMemRead                7      0.29%     94.38% # attempts to use FU when none available
system.cpu0.iq.fu_full::FloatMemWrite             135      5.62%    100.00% # attempts to use FU when none available
system.cpu0.iq.fu_full::IprAccess                   0      0.00%    100.00% # attempts to use FU when none available
system.cpu0.iq.fu_full::InstPrefetch                0      0.00%    100.00% # attempts to use FU when none available
system.cpu0.iq.FU_type_0::No_OpClass             8003      1.38%      1.38% # Type of FU issued
system.cpu0.iq.FU_type_0::IntAlu               416854     71.82%     73.20% # Type of FU issued
system.cpu0.iq.FU_type_0::IntMult               14869      2.56%     75.76% # Type of FU issued
system.cpu0.iq.FU_type_0::IntDiv                48368      8.33%     84.09% # Type of FU issued
system.cpu0.iq.FU_type_0::FloatAdd               1093      0.19%     84.28% # Type of FU issued
system.cpu0.iq.FU_type_0::FloatCmp                  0      0.00%     84.28% # Type of FU issued
system.cpu0.iq.FU_type_0::FloatCvt                  0      0.00%     84.28% # Type of FU issued
system.cpu0.iq.FU_type_0::FloatMult                 0      0.00%     84.28% # Type of FU issued
system.cpu0.iq.FU_type_0::FloatMultAcc              0      0.00%     84.28% # Type of FU issued
system.cpu0.iq.FU_type_0::FloatDiv                  0      0.00%     84.28% # Type of FU issued
system.cpu0.iq.FU_type_0::FloatMisc                 0      0.00%     84.28% # Type of FU issued
system.cpu0.iq.FU_type_0::FloatSqrt                 0      0.00%     84.28% # Type of FU issued
system.cpu0.iq.FU_type_0::SimdAdd                   0      0.00%     84.28% # Type of FU issued
system.cpu0.iq.FU_type_0::SimdAddAcc                0      0.00%     84.28% # Type of FU issued
system.cpu0.iq.FU_type_0::SimdAlu                   0      0.00%     84.28% # Type of FU issued
system.cpu0.iq.FU_type_0::SimdCmp                   0      0.00%     84.28% # Type of FU issued
system.cpu0.iq.FU_type_0::SimdCvt                   0      0.00%     84.28% # Type of FU issued
system.cpu0.iq.FU_type_0::SimdMisc                  0      0.00%     84.28% # Type of FU issued
system.cpu0.iq.FU_type_0::SimdMult                  0      0.00%     84.28% # Type of FU issued
system.cpu0.iq.FU_type_0::SimdMultAcc               0      0.00%     84.28% # Type of FU issued
system.cpu0.iq.FU_type_0::SimdShift                 0      0.00%     84.28% # Type of FU issued
system.cpu0.iq.FU_type_0::SimdShiftAcc              0      0.00%     84.28% # Type of FU issued
system.cpu0.iq.FU_type_0::SimdSqrt                  0      0.00%     84.28% # Type of FU issued
system.cpu0.iq.FU_type_0::SimdFloatAdd              0      0.00%     84.28% # Type of FU issued
system.cpu0.iq.FU_type_0::SimdFloatAlu              0      0.00%     84.28% # Type of FU issued
system.cpu0.iq.FU_type_0::SimdFloatCmp              0      0.00%     84.28% # Type of FU issued
system.cpu0.iq.FU_type_0::SimdFloatCvt              0      0.00%     84.28% # Type of FU issued
system.cpu0.iq.FU_type_0::SimdFloatDiv              0      0.00%     84.28% # Type of FU issued
system.cpu0.iq.FU_type_0::SimdFloatMisc             0      0.00%     84.28% # Type of FU issued
system.cpu0.iq.FU_type_0::SimdFloatMult             0      0.00%     84.28% # Type of FU issued
system.cpu0.iq.FU_type_0::SimdFloatMultAcc            0      0.00%     84.28% # Type of FU issued
system.cpu0.iq.FU_type_0::SimdFloatSqrt             0      0.00%     84.28% # Type of FU issued
system.cpu0.iq.FU_type_0::MemRead               31789      5.48%     89.76% # Type of FU issued
system.cpu0.iq.FU_type_0::MemWrite              25917      4.47%     94.22% # Type of FU issued
system.cpu0.iq.FU_type_0::FloatMemRead           1108      0.19%     94.42% # Type of FU issued
system.cpu0.iq.FU_type_0::FloatMemWrite         32414      5.58%    100.00% # Type of FU issued
system.cpu0.iq.FU_type_0::IprAccess                 0      0.00%    100.00% # Type of FU issued
system.cpu0.iq.FU_type_0::InstPrefetch              0      0.00%    100.00% # Type of FU issued
system.cpu0.iq.FU_type_0::total                580415                       # Type of FU issued
system.cpu0.iq.rate                          0.470124                       # Inst issue rate
system.cpu0.iq.fu_busy_cnt                       2401                       # FU busy when requested
system.cpu0.iq.fu_busy_rate                  0.004137                       # FU busy rate (busy events/executed inst)
system.cpu0.iq.int_inst_queue_reads           2263250                       # Number of integer instruction queue reads
system.cpu0.iq.int_inst_queue_writes           620467                       # Number of integer instruction queue writes
system.cpu0.iq.int_inst_queue_wakeup_accesses       538660                       # Number of integer instruction queue wakeup accesses
system.cpu0.iq.fp_inst_queue_reads              69685                       # Number of floating instruction queue reads
system.cpu0.iq.fp_inst_queue_writes             35413                       # Number of floating instruction queue writes
system.cpu0.iq.fp_inst_queue_wakeup_accesses        34651                       # Number of floating instruction queue wakeup accesses
system.cpu0.iq.vec_inst_queue_reads                 0                       # Number of vector instruction queue reads
system.cpu0.iq.vec_inst_queue_writes                0                       # Number of vector instruction queue writes
system.cpu0.iq.vec_inst_queue_wakeup_accesses            0                       # Number of vector instruction queue wakeup accesses
system.cpu0.iq.int_alu_accesses                539918                       # Number of integer alu accesses
system.cpu0.iq.fp_alu_accesses                  34895                       # Number of floating point alu accesses
system.cpu0.iq.vec_alu_accesses                     0                       # Number of vector alu accesses
system.cpu0.iew.lsq.thread0.forwLoads            5389                       # Number of loads that had data forwarded from stores
system.cpu0.iew.lsq.thread0.invAddrLoads            0                       # Number of loads ignored due to an invalid address
system.cpu0.iew.lsq.thread0.squashedLoads         7049                       # Number of loads squashed
system.cpu0.iew.lsq.thread0.ignoredResponses           21                       # Number of memory responses ignored because the instruction is squashed
system.cpu0.iew.lsq.thread0.memOrderViolation           49                       # Number of memory ordering violations
system.cpu0.iew.lsq.thread0.squashedStores         5145                       # Number of stores squashed
system.cpu0.iew.lsq.thread0.invAddrSwpfs            0                       # Number of software prefetches ignored due to an invalid address
system.cpu0.iew.lsq.thread0.blockedLoads            0                       # Number of blocked loads due to partial load-store forwarding
system.cpu0.iew.lsq.thread0.rescheduledLoads           26                       # Number of loads that were rescheduled
system.cpu0.iew.lsq.thread0.cacheBlocked           29                       # Number of times an access to memory failed due to the cache being blocked
system.cpu0.iew.iewIdleCycles                       0                       # Number of cycles IEW is idle
system.cpu0.iew.iewSquashCycles                  2404                       # Number of cycles IEW is squashing
system.cpu0.iew.iewBlockCycles                   8228                       # Number of cycles IEW is blocking
system.cpu0.iew.iewUnblockCycles               329444                       # Number of cycles IEW is unblocking
system.cpu0.iew.iewDispatchedInsts             598747                       # Number of instructions dispatched to IQ
system.cpu0.iew.iewDispSquashedInsts              124                       # Number of squashed instructions skipped by dispatch
system.cpu0.iew.iewDispLoadInsts                34813                       # Number of dispatched load instructions
system.cpu0.iew.iewDispStoreInsts               60734                       # Number of dispatched store instructions
system.cpu0.iew.iewDispNonSpecInsts               164                       # Number of dispatched non-speculative instructions
system.cpu0.iew.iewIQFullEvents                    19                       # Number of times the IQ has become full, causing a stall
system.cpu0.iew.iewLSQFullEvents               329423                       # Number of times the LSQ has become full, causing a stall
system.cpu0.iew.memOrderViolationEvents            49                       # Number of memory order violations
system.cpu0.iew.predictedTakenIncorrect           521                       # Number of branches that were predicted taken incorrectly
system.cpu0.iew.predictedNotTakenIncorrect         2592                       # Number of branches that were predicted not taken incorrectly
system.cpu0.iew.branchMispredicts                3113                       # Number of branch mispredicts detected at execute
system.cpu0.iew.iewExecutedInsts               575370                       # Number of executed instructions
system.cpu0.iew.iewExecLoadInsts                31973                       # Number of load instructions executed
system.cpu0.iew.iewExecSquashedInsts             5044                       # Number of squashed instructions skipped in execute
system.cpu0.iew.exec_swp                            0                       # number of swp insts executed
system.cpu0.iew.exec_nop                            0                       # number of nop insts executed
system.cpu0.iew.exec_refs                       89671                       # number of memory reference insts executed
system.cpu0.iew.exec_branches                   30101                       # Number of branches executed
system.cpu0.iew.exec_stores                     57698                       # Number of stores executed
system.cpu0.iew.exec_rate                    0.466038                       # Inst execution rate
system.cpu0.iew.wb_sent                        574242                       # cumulative count of insts sent to commit
system.cpu0.iew.wb_count                       573311                       # cumulative count of insts written-back
system.cpu0.iew.wb_producers                   425967                       # num instructions producing a value
system.cpu0.iew.wb_consumers                  1117263                       # num instructions consuming a value
system.cpu0.iew.wb_rate                      0.464370                       # insts written-back per cycle
system.cpu0.iew.wb_fanout                    0.381259                       # average fanout of values written-back
system.cpu0.commit.commitSquashedInsts          57097                       # The number of squashed insts skipped by commit
system.cpu0.commit.commitNonSpecStalls             38                       # The number of times commit has been forced to stall to communicate backwards
system.cpu0.commit.branchMispredicts             2372                       # The number of times a branch was mispredicted
system.cpu0.commit.committed_per_cycle::samples      1159874                       # Number of insts commited each cycle
system.cpu0.commit.committed_per_cycle::mean     0.466968                       # Number of insts commited each cycle
system.cpu0.commit.committed_per_cycle::stdev     1.356244                       # Number of insts commited each cycle
system.cpu0.commit.committed_per_cycle::underflows            0      0.00%      0.00% # Number of insts commited each cycle
system.cpu0.commit.committed_per_cycle::0       932221     80.37%     80.37% # Number of insts commited each cycle
system.cpu0.commit.committed_per_cycle::1       140048     12.07%     92.45% # Number of insts commited each cycle
system.cpu0.commit.committed_per_cycle::2        17275      1.49%     93.94% # Number of insts commited each cycle
system.cpu0.commit.committed_per_cycle::3        20531      1.77%     95.71% # Number of insts commited each cycle
system.cpu0.commit.committed_per_cycle::4         8718      0.75%     96.46% # Number of insts commited each cycle
system.cpu0.commit.committed_per_cycle::5        13768      1.19%     97.65% # Number of insts commited each cycle
system.cpu0.commit.committed_per_cycle::6         6244      0.54%     98.18% # Number of insts commited each cycle
system.cpu0.commit.committed_per_cycle::7         4295      0.37%     98.55% # Number of insts commited each cycle
system.cpu0.commit.committed_per_cycle::8        16774      1.45%    100.00% # Number of insts commited each cycle
system.cpu0.commit.committed_per_cycle::overflows            0      0.00%    100.00% # Number of insts commited each cycle
system.cpu0.commit.committed_per_cycle::min_value            0                       # Number of insts commited each cycle
system.cpu0.commit.committed_per_cycle::max_value            8                       # Number of insts commited each cycle
system.cpu0.commit.committed_per_cycle::total      1159874                       # Number of insts commited each cycle
system.cpu0.commit.committedInsts              194349                       # Number of instructions committed
system.cpu0.commit.committedOps                541624                       # Number of ops (including micro ops) committed
system.cpu0.commit.swp_count                        0                       # Number of s/w prefetches committed
system.cpu0.commit.refs                         83349                       # Number of memory references committed
system.cpu0.commit.loads                        27764                       # Number of loads committed
system.cpu0.commit.membars                          8                       # Number of memory barriers committed
system.cpu0.commit.branches                     27578                       # Number of branches committed
system.cpu0.commit.vec_insts                        0                       # Number of committed Vector instructions.
system.cpu0.commit.fp_insts                     34401                       # Number of committed floating point instructions.
system.cpu0.commit.int_insts                   533411                       # Number of committed integer instructions.
system.cpu0.commit.function_calls                3917                       # Number of function calls committed.
system.cpu0.commit.op_class_0::No_OpClass         7233      1.34%      1.34% # Class of committed instruction
system.cpu0.commit.op_class_0::IntAlu          386946     71.44%     72.78% # Class of committed instruction
system.cpu0.commit.op_class_0::IntMult          14711      2.72%     75.49% # Class of committed instruction
system.cpu0.commit.op_class_0::IntDiv           48349      8.93%     84.42% # Class of committed instruction
system.cpu0.commit.op_class_0::FloatAdd          1036      0.19%     84.61% # Class of committed instruction
system.cpu0.commit.op_class_0::FloatCmp             0      0.00%     84.61% # Class of committed instruction
system.cpu0.commit.op_class_0::FloatCvt             0      0.00%     84.61% # Class of committed instruction
system.cpu0.commit.op_class_0::FloatMult            0      0.00%     84.61% # Class of committed instruction
system.cpu0.commit.op_class_0::FloatMultAcc            0      0.00%     84.61% # Class of committed instruction
system.cpu0.commit.op_class_0::FloatDiv             0      0.00%     84.61% # Class of committed instruction
system.cpu0.commit.op_class_0::FloatMisc            0      0.00%     84.61% # Class of committed instruction
system.cpu0.commit.op_class_0::FloatSqrt            0      0.00%     84.61% # Class of committed instruction
system.cpu0.commit.op_class_0::SimdAdd              0      0.00%     84.61% # Class of committed instruction
system.cpu0.commit.op_class_0::SimdAddAcc            0      0.00%     84.61% # Class of committed instruction
system.cpu0.commit.op_class_0::SimdAlu              0      0.00%     84.61% # Class of committed instruction
system.cpu0.commit.op_class_0::SimdCmp              0      0.00%     84.61% # Class of committed instruction
system.cpu0.commit.op_class_0::SimdCvt              0      0.00%     84.61% # Class of committed instruction
system.cpu0.commit.op_class_0::SimdMisc             0      0.00%     84.61% # Class of committed instruction
system.cpu0.commit.op_class_0::SimdMult             0      0.00%     84.61% # Class of committed instruction
system.cpu0.commit.op_class_0::SimdMultAcc            0      0.00%     84.61% # Class of committed instruction
system.cpu0.commit.op_class_0::SimdShift            0      0.00%     84.61% # Class of committed instruction
system.cpu0.commit.op_class_0::SimdShiftAcc            0      0.00%     84.61% # Class of committed instruction
system.cpu0.commit.op_class_0::SimdSqrt             0      0.00%     84.61% # Class of committed instruction
system.cpu0.commit.op_class_0::SimdFloatAdd            0      0.00%     84.61% # Class of committed instruction
system.cpu0.commit.op_class_0::SimdFloatAlu            0      0.00%     84.61% # Class of committed instruction
system.cpu0.commit.op_class_0::SimdFloatCmp            0      0.00%     84.61% # Class of committed instruction
system.cpu0.commit.op_class_0::SimdFloatCvt            0      0.00%     84.61% # Class of committed instruction
system.cpu0.commit.op_class_0::SimdFloatDiv            0      0.00%     84.61% # Class of committed instruction
system.cpu0.commit.op_class_0::SimdFloatMisc            0      0.00%     84.61% # Class of committed instruction
system.cpu0.commit.op_class_0::SimdFloatMult            0      0.00%     84.61% # Class of committed instruction
system.cpu0.commit.op_class_0::SimdFloatMultAcc            0      0.00%     84.61% # Class of committed instruction
system.cpu0.commit.op_class_0::SimdFloatSqrt            0      0.00%     84.61% # Class of committed instruction
system.cpu0.commit.op_class_0::MemRead          26749      4.94%     89.55% # Class of committed instruction
system.cpu0.commit.op_class_0::MemWrite         23354      4.31%     93.86% # Class of committed instruction
system.cpu0.commit.op_class_0::FloatMemRead         1015      0.19%     94.05% # Class of committed instruction
system.cpu0.commit.op_class_0::FloatMemWrite        32231      5.95%    100.00% # Class of committed instruction
system.cpu0.commit.op_class_0::IprAccess            0      0.00%    100.00% # Class of committed instruction
system.cpu0.commit.op_class_0::InstPrefetch            0      0.00%    100.00% # Class of committed instruction
system.cpu0.commit.op_class_0::total           541624                       # Class of committed instruction
system.cpu0.commit.bw_lim_events                16774                       # number cycles where commit BW limit reached
system.cpu0.rob.rob_reads                     1741821                       # The number of ROB reads
system.cpu0.rob.rob_writes                    1206784                       # The number of ROB writes
system.cpu0.timesIdled                            434                       # Number of times that the entire CPU went into an idle state and unscheduled itself
system.cpu0.idleCycles                          65621                       # Total number of cycles that the CPU has spent unscheduled due to idling
system.cpu0.committedInsts                     194349                       # Number of Instructions Simulated
system.cpu0.committedOps                       541624                       # Number of Ops (including micro ops) Simulated
system.cpu0.cpi                              6.352490                       # CPI: Cycles Per Instruction
system.cpu0.cpi_total                        6.352490                       # CPI: Total CPI of All Threads
system.cpu0.ipc                              0.157419                       # IPC: Instructions Per Cycle
system.cpu0.ipc_total                        0.157419                       # IPC: Total IPC of All Threads
system.cpu0.int_regfile_reads                 1159311                       # number of integer regfile reads
system.cpu0.int_regfile_writes                 594666                       # number of integer regfile writes
system.cpu0.fp_regfile_reads                    34730                       # number of floating regfile reads
system.cpu0.fp_regfile_writes                    2137                       # number of floating regfile writes
system.cpu0.cc_regfile_reads                   443271                       # number of cc regfile reads
system.cpu0.cc_regfile_writes                  178884                       # number of cc regfile writes
system.cpu0.misc_regfile_reads                 151968                       # number of misc regfile reads
system.cpu0.dcache.tags.pwrStateResidencyTicks::UNDEFINED    411121467                       # Cumulative time (in ticks) in various power states
system.cpu0.dcache.tags.replacements             5394                       # number of replacements
system.cpu0.dcache.tags.tagsinuse          469.068372                       # Cycle average of tags in use
system.cpu0.dcache.tags.total_refs              75837                       # Total number of references to valid blocks.
system.cpu0.dcache.tags.sampled_refs             5906                       # Sample count of references to valid blocks.
system.cpu0.dcache.tags.avg_refs            12.840671                       # Average number of references to valid blocks.
system.cpu0.dcache.tags.warmup_cycle           150183                       # Cycle when the warmup percentage was hit.
system.cpu0.dcache.tags.occ_blocks::cpu0.data   469.068372                       # Average occupied blocks per requestor
system.cpu0.dcache.tags.occ_percent::cpu0.data     0.916149                       # Average percentage of cache occupancy
system.cpu0.dcache.tags.occ_percent::total     0.916149                       # Average percentage of cache occupancy
system.cpu0.dcache.tags.occ_task_id_blocks::1024          512                       # Occupied blocks per task id
system.cpu0.dcache.tags.age_task_id_blocks_1024::0           32                       # Occupied blocks per task id
system.cpu0.dcache.tags.age_task_id_blocks_1024::2          480                       # Occupied blocks per task id
system.cpu0.dcache.tags.occ_task_id_percent::1024            1                       # Percentage of cache occupancy per task id
system.cpu0.dcache.tags.tag_accesses           661074                       # Number of tag accesses
system.cpu0.dcache.tags.data_accesses          661074                       # Number of data accesses
system.cpu0.dcache.pwrStateResidencyTicks::UNDEFINED    411121467                       # Cumulative time (in ticks) in various power states
system.cpu0.dcache.ReadReq_hits::cpu0.data        26020                       # number of ReadReq hits
system.cpu0.dcache.ReadReq_hits::total          26020                       # number of ReadReq hits
system.cpu0.dcache.WriteReq_hits::cpu0.data        49817                       # number of WriteReq hits
system.cpu0.dcache.WriteReq_hits::total         49817                       # number of WriteReq hits
system.cpu0.dcache.demand_hits::cpu0.data        75837                       # number of demand (read+write) hits
system.cpu0.dcache.demand_hits::total           75837                       # number of demand (read+write) hits
system.cpu0.dcache.overall_hits::cpu0.data        75837                       # number of overall hits
system.cpu0.dcache.overall_hits::total          75837                       # number of overall hits
system.cpu0.dcache.ReadReq_misses::cpu0.data          315                       # number of ReadReq misses
system.cpu0.dcache.ReadReq_misses::total          315                       # number of ReadReq misses
system.cpu0.dcache.WriteReq_misses::cpu0.data         5744                       # number of WriteReq misses
system.cpu0.dcache.WriteReq_misses::total         5744                       # number of WriteReq misses
system.cpu0.dcache.demand_misses::cpu0.data         6059                       # number of demand (read+write) misses
system.cpu0.dcache.demand_misses::total          6059                       # number of demand (read+write) misses
system.cpu0.dcache.overall_misses::cpu0.data         6059                       # number of overall misses
system.cpu0.dcache.overall_misses::total         6059                       # number of overall misses
system.cpu0.dcache.ReadReq_miss_latency::cpu0.data     23047263                       # number of ReadReq miss cycles
system.cpu0.dcache.ReadReq_miss_latency::total     23047263                       # number of ReadReq miss cycles
system.cpu0.dcache.WriteReq_miss_latency::cpu0.data    342820169                       # number of WriteReq miss cycles
system.cpu0.dcache.WriteReq_miss_latency::total    342820169                       # number of WriteReq miss cycles
system.cpu0.dcache.demand_miss_latency::cpu0.data    365867432                       # number of demand (read+write) miss cycles
system.cpu0.dcache.demand_miss_latency::total    365867432                       # number of demand (read+write) miss cycles
system.cpu0.dcache.overall_miss_latency::cpu0.data    365867432                       # number of overall miss cycles
system.cpu0.dcache.overall_miss_latency::total    365867432                       # number of overall miss cycles
system.cpu0.dcache.ReadReq_accesses::cpu0.data        26335                       # number of ReadReq accesses(hits+misses)
system.cpu0.dcache.ReadReq_accesses::total        26335                       # number of ReadReq accesses(hits+misses)
system.cpu0.dcache.WriteReq_accesses::cpu0.data        55561                       # number of WriteReq accesses(hits+misses)
system.cpu0.dcache.WriteReq_accesses::total        55561                       # number of WriteReq accesses(hits+misses)
system.cpu0.dcache.demand_accesses::cpu0.data        81896                       # number of demand (read+write) accesses
system.cpu0.dcache.demand_accesses::total        81896                       # number of demand (read+write) accesses
system.cpu0.dcache.overall_accesses::cpu0.data        81896                       # number of overall (read+write) accesses
system.cpu0.dcache.overall_accesses::total        81896                       # number of overall (read+write) accesses
system.cpu0.dcache.ReadReq_miss_rate::cpu0.data     0.011961                       # miss rate for ReadReq accesses
system.cpu0.dcache.ReadReq_miss_rate::total     0.011961                       # miss rate for ReadReq accesses
system.cpu0.dcache.WriteReq_miss_rate::cpu0.data     0.103382                       # miss rate for WriteReq accesses
system.cpu0.dcache.WriteReq_miss_rate::total     0.103382                       # miss rate for WriteReq accesses
system.cpu0.dcache.demand_miss_rate::cpu0.data     0.073984                       # miss rate for demand accesses
system.cpu0.dcache.demand_miss_rate::total     0.073984                       # miss rate for demand accesses
system.cpu0.dcache.overall_miss_rate::cpu0.data     0.073984                       # miss rate for overall accesses
system.cpu0.dcache.overall_miss_rate::total     0.073984                       # miss rate for overall accesses
system.cpu0.dcache.ReadReq_avg_miss_latency::cpu0.data 73165.914286                       # average ReadReq miss latency
system.cpu0.dcache.ReadReq_avg_miss_latency::total 73165.914286                       # average ReadReq miss latency
system.cpu0.dcache.WriteReq_avg_miss_latency::cpu0.data 59683.177054                       # average WriteReq miss latency
system.cpu0.dcache.WriteReq_avg_miss_latency::total 59683.177054                       # average WriteReq miss latency
system.cpu0.dcache.demand_avg_miss_latency::cpu0.data 60384.128074                       # average overall miss latency
system.cpu0.dcache.demand_avg_miss_latency::total 60384.128074                       # average overall miss latency
system.cpu0.dcache.overall_avg_miss_latency::cpu0.data 60384.128074                       # average overall miss latency
system.cpu0.dcache.overall_avg_miss_latency::total 60384.128074                       # average overall miss latency
system.cpu0.dcache.blocked_cycles::no_mshrs          986                       # number of cycles access was blocked
system.cpu0.dcache.blocked_cycles::no_targets            0                       # number of cycles access was blocked
system.cpu0.dcache.blocked::no_mshrs               10                       # number of cycles access was blocked
system.cpu0.dcache.blocked::no_targets              0                       # number of cycles access was blocked
system.cpu0.dcache.avg_blocked_cycles::no_mshrs    98.600000                       # average number of cycles each access was blocked
system.cpu0.dcache.avg_blocked_cycles::no_targets          nan                       # average number of cycles each access was blocked
system.cpu0.dcache.writebacks::writebacks         5282                       # number of writebacks
system.cpu0.dcache.writebacks::total             5282                       # number of writebacks
system.cpu0.dcache.ReadReq_mshr_hits::cpu0.data          149                       # number of ReadReq MSHR hits
system.cpu0.dcache.ReadReq_mshr_hits::total          149                       # number of ReadReq MSHR hits
system.cpu0.dcache.WriteReq_mshr_hits::cpu0.data            3                       # number of WriteReq MSHR hits
system.cpu0.dcache.WriteReq_mshr_hits::total            3                       # number of WriteReq MSHR hits
system.cpu0.dcache.demand_mshr_hits::cpu0.data          152                       # number of demand (read+write) MSHR hits
system.cpu0.dcache.demand_mshr_hits::total          152                       # number of demand (read+write) MSHR hits
system.cpu0.dcache.overall_mshr_hits::cpu0.data          152                       # number of overall MSHR hits
system.cpu0.dcache.overall_mshr_hits::total          152                       # number of overall MSHR hits
system.cpu0.dcache.ReadReq_mshr_misses::cpu0.data          166                       # number of ReadReq MSHR misses
system.cpu0.dcache.ReadReq_mshr_misses::total          166                       # number of ReadReq MSHR misses
system.cpu0.dcache.WriteReq_mshr_misses::cpu0.data         5741                       # number of WriteReq MSHR misses
system.cpu0.dcache.WriteReq_mshr_misses::total         5741                       # number of WriteReq MSHR misses
system.cpu0.dcache.demand_mshr_misses::cpu0.data         5907                       # number of demand (read+write) MSHR misses
system.cpu0.dcache.demand_mshr_misses::total         5907                       # number of demand (read+write) MSHR misses
system.cpu0.dcache.overall_mshr_misses::cpu0.data         5907                       # number of overall MSHR misses
system.cpu0.dcache.overall_mshr_misses::total         5907                       # number of overall MSHR misses
system.cpu0.dcache.ReadReq_mshr_miss_latency::cpu0.data     12716271                       # number of ReadReq MSHR miss cycles
system.cpu0.dcache.ReadReq_mshr_miss_latency::total     12716271                       # number of ReadReq MSHR miss cycles
system.cpu0.dcache.WriteReq_mshr_miss_latency::cpu0.data    338796531                       # number of WriteReq MSHR miss cycles
system.cpu0.dcache.WriteReq_mshr_miss_latency::total    338796531                       # number of WriteReq MSHR miss cycles
system.cpu0.dcache.demand_mshr_miss_latency::cpu0.data    351512802                       # number of demand (read+write) MSHR miss cycles
system.cpu0.dcache.demand_mshr_miss_latency::total    351512802                       # number of demand (read+write) MSHR miss cycles
system.cpu0.dcache.overall_mshr_miss_latency::cpu0.data    351512802                       # number of overall MSHR miss cycles
system.cpu0.dcache.overall_mshr_miss_latency::total    351512802                       # number of overall MSHR miss cycles
system.cpu0.dcache.ReadReq_mshr_miss_rate::cpu0.data     0.006303                       # mshr miss rate for ReadReq accesses
system.cpu0.dcache.ReadReq_mshr_miss_rate::total     0.006303                       # mshr miss rate for ReadReq accesses
system.cpu0.dcache.WriteReq_mshr_miss_rate::cpu0.data     0.103328                       # mshr miss rate for WriteReq accesses
system.cpu0.dcache.WriteReq_mshr_miss_rate::total     0.103328                       # mshr miss rate for WriteReq accesses
system.cpu0.dcache.demand_mshr_miss_rate::cpu0.data     0.072128                       # mshr miss rate for demand accesses
system.cpu0.dcache.demand_mshr_miss_rate::total     0.072128                       # mshr miss rate for demand accesses
system.cpu0.dcache.overall_mshr_miss_rate::cpu0.data     0.072128                       # mshr miss rate for overall accesses
system.cpu0.dcache.overall_mshr_miss_rate::total     0.072128                       # mshr miss rate for overall accesses
system.cpu0.dcache.ReadReq_avg_mshr_miss_latency::cpu0.data 76604.042169                       # average ReadReq mshr miss latency
system.cpu0.dcache.ReadReq_avg_mshr_miss_latency::total 76604.042169                       # average ReadReq mshr miss latency
system.cpu0.dcache.WriteReq_avg_mshr_miss_latency::cpu0.data 59013.504790                       # average WriteReq mshr miss latency
system.cpu0.dcache.WriteReq_avg_mshr_miss_latency::total 59013.504790                       # average WriteReq mshr miss latency
system.cpu0.dcache.demand_avg_mshr_miss_latency::cpu0.data 59507.838497                       # average overall mshr miss latency
system.cpu0.dcache.demand_avg_mshr_miss_latency::total 59507.838497                       # average overall mshr miss latency
system.cpu0.dcache.overall_avg_mshr_miss_latency::cpu0.data 59507.838497                       # average overall mshr miss latency
system.cpu0.dcache.overall_avg_mshr_miss_latency::total 59507.838497                       # average overall mshr miss latency
system.cpu0.dtb_walker_cache.tags.pwrStateResidencyTicks::UNDEFINED    411121467                       # Cumulative time (in ticks) in various power states
system.cpu0.dtb_walker_cache.tags.replacements            0                       # number of replacements
system.cpu0.dtb_walker_cache.tags.tagsinuse            0                       # Cycle average of tags in use
system.cpu0.dtb_walker_cache.tags.total_refs            0                       # Total number of references to valid blocks.
system.cpu0.dtb_walker_cache.tags.sampled_refs            0                       # Sample count of references to valid blocks.
system.cpu0.dtb_walker_cache.tags.avg_refs          nan                       # Average number of references to valid blocks.
system.cpu0.dtb_walker_cache.tags.warmup_cycle            0                       # Cycle when the warmup percentage was hit.
system.cpu0.dtb_walker_cache.tags.tag_accesses            0                       # Number of tag accesses
system.cpu0.dtb_walker_cache.tags.data_accesses            0                       # Number of data accesses
system.cpu0.dtb_walker_cache.pwrStateResidencyTicks::UNDEFINED    411121467                       # Cumulative time (in ticks) in various power states
system.cpu0.dtb_walker_cache.blocked_cycles::no_mshrs            0                       # number of cycles access was blocked
system.cpu0.dtb_walker_cache.blocked_cycles::no_targets            0                       # number of cycles access was blocked
system.cpu0.dtb_walker_cache.blocked::no_mshrs            0                       # number of cycles access was blocked
system.cpu0.dtb_walker_cache.blocked::no_targets            0                       # number of cycles access was blocked
system.cpu0.dtb_walker_cache.avg_blocked_cycles::no_mshrs          nan                       # average number of cycles each access was blocked
system.cpu0.dtb_walker_cache.avg_blocked_cycles::no_targets          nan                       # average number of cycles each access was blocked
system.cpu0.icache.tags.pwrStateResidencyTicks::UNDEFINED    411121467                       # Cumulative time (in ticks) in various power states
system.cpu0.icache.tags.replacements              312                       # number of replacements
system.cpu0.icache.tags.tagsinuse          492.018222                       # Cycle average of tags in use
system.cpu0.icache.tags.total_refs              33906                       # Total number of references to valid blocks.
system.cpu0.icache.tags.sampled_refs              824                       # Sample count of references to valid blocks.
system.cpu0.icache.tags.avg_refs            41.148058                       # Average number of references to valid blocks.
system.cpu0.icache.tags.warmup_cycle            76257                       # Cycle when the warmup percentage was hit.
system.cpu0.icache.tags.occ_blocks::cpu0.inst   492.018222                       # Average occupied blocks per requestor
system.cpu0.icache.tags.occ_percent::cpu0.inst     0.960973                       # Average percentage of cache occupancy
system.cpu0.icache.tags.occ_percent::total     0.960973                       # Average percentage of cache occupancy
system.cpu0.icache.tags.occ_task_id_blocks::1024          512                       # Occupied blocks per task id
system.cpu0.icache.tags.age_task_id_blocks_1024::2          512                       # Occupied blocks per task id
system.cpu0.icache.tags.occ_task_id_percent::1024            1                       # Percentage of cache occupancy per task id
system.cpu0.icache.tags.tag_accesses           280336                       # Number of tag accesses
system.cpu0.icache.tags.data_accesses          280336                       # Number of data accesses
system.cpu0.icache.pwrStateResidencyTicks::UNDEFINED    411121467                       # Cumulative time (in ticks) in various power states
system.cpu0.icache.ReadReq_hits::cpu0.inst        33906                       # number of ReadReq hits
system.cpu0.icache.ReadReq_hits::total          33906                       # number of ReadReq hits
system.cpu0.icache.demand_hits::cpu0.inst        33906                       # number of demand (read+write) hits
system.cpu0.icache.demand_hits::total           33906                       # number of demand (read+write) hits
system.cpu0.icache.overall_hits::cpu0.inst        33906                       # number of overall hits
system.cpu0.icache.overall_hits::total          33906                       # number of overall hits
system.cpu0.icache.ReadReq_misses::cpu0.inst         1033                       # number of ReadReq misses
system.cpu0.icache.ReadReq_misses::total         1033                       # number of ReadReq misses
system.cpu0.icache.demand_misses::cpu0.inst         1033                       # number of demand (read+write) misses
system.cpu0.icache.demand_misses::total          1033                       # number of demand (read+write) misses
system.cpu0.icache.overall_misses::cpu0.inst         1033                       # number of overall misses
system.cpu0.icache.overall_misses::total         1033                       # number of overall misses
system.cpu0.icache.ReadReq_miss_latency::cpu0.inst     63347921                       # number of ReadReq miss cycles
system.cpu0.icache.ReadReq_miss_latency::total     63347921                       # number of ReadReq miss cycles
system.cpu0.icache.demand_miss_latency::cpu0.inst     63347921                       # number of demand (read+write) miss cycles
system.cpu0.icache.demand_miss_latency::total     63347921                       # number of demand (read+write) miss cycles
system.cpu0.icache.overall_miss_latency::cpu0.inst     63347921                       # number of overall miss cycles
system.cpu0.icache.overall_miss_latency::total     63347921                       # number of overall miss cycles
system.cpu0.icache.ReadReq_accesses::cpu0.inst        34939                       # number of ReadReq accesses(hits+misses)
system.cpu0.icache.ReadReq_accesses::total        34939                       # number of ReadReq accesses(hits+misses)
system.cpu0.icache.demand_accesses::cpu0.inst        34939                       # number of demand (read+write) accesses
system.cpu0.icache.demand_accesses::total        34939                       # number of demand (read+write) accesses
system.cpu0.icache.overall_accesses::cpu0.inst        34939                       # number of overall (read+write) accesses
system.cpu0.icache.overall_accesses::total        34939                       # number of overall (read+write) accesses
system.cpu0.icache.ReadReq_miss_rate::cpu0.inst     0.029566                       # miss rate for ReadReq accesses
system.cpu0.icache.ReadReq_miss_rate::total     0.029566                       # miss rate for ReadReq accesses
system.cpu0.icache.demand_miss_rate::cpu0.inst     0.029566                       # miss rate for demand accesses
system.cpu0.icache.demand_miss_rate::total     0.029566                       # miss rate for demand accesses
system.cpu0.icache.overall_miss_rate::cpu0.inst     0.029566                       # miss rate for overall accesses
system.cpu0.icache.overall_miss_rate::total     0.029566                       # miss rate for overall accesses
system.cpu0.icache.ReadReq_avg_miss_latency::cpu0.inst 61324.221684                       # average ReadReq miss latency
system.cpu0.icache.ReadReq_avg_miss_latency::total 61324.221684                       # average ReadReq miss latency
system.cpu0.icache.demand_avg_miss_latency::cpu0.inst 61324.221684                       # average overall miss latency
system.cpu0.icache.demand_avg_miss_latency::total 61324.221684                       # average overall miss latency
system.cpu0.icache.overall_avg_miss_latency::cpu0.inst 61324.221684                       # average overall miss latency
system.cpu0.icache.overall_avg_miss_latency::total 61324.221684                       # average overall miss latency
system.cpu0.icache.blocked_cycles::no_mshrs         1681                       # number of cycles access was blocked
system.cpu0.icache.blocked_cycles::no_targets            0                       # number of cycles access was blocked
system.cpu0.icache.blocked::no_mshrs               16                       # number of cycles access was blocked
system.cpu0.icache.blocked::no_targets              0                       # number of cycles access was blocked
system.cpu0.icache.avg_blocked_cycles::no_mshrs   105.062500                       # average number of cycles each access was blocked
system.cpu0.icache.avg_blocked_cycles::no_targets          nan                       # average number of cycles each access was blocked
system.cpu0.icache.writebacks::writebacks          312                       # number of writebacks
system.cpu0.icache.writebacks::total              312                       # number of writebacks
system.cpu0.icache.ReadReq_mshr_hits::cpu0.inst          209                       # number of ReadReq MSHR hits
system.cpu0.icache.ReadReq_mshr_hits::total          209                       # number of ReadReq MSHR hits
system.cpu0.icache.demand_mshr_hits::cpu0.inst          209                       # number of demand (read+write) MSHR hits
system.cpu0.icache.demand_mshr_hits::total          209                       # number of demand (read+write) MSHR hits
system.cpu0.icache.overall_mshr_hits::cpu0.inst          209                       # number of overall MSHR hits
system.cpu0.icache.overall_mshr_hits::total          209                       # number of overall MSHR hits
system.cpu0.icache.ReadReq_mshr_misses::cpu0.inst          824                       # number of ReadReq MSHR misses
system.cpu0.icache.ReadReq_mshr_misses::total          824                       # number of ReadReq MSHR misses
system.cpu0.icache.demand_mshr_misses::cpu0.inst          824                       # number of demand (read+write) MSHR misses
system.cpu0.icache.demand_mshr_misses::total          824                       # number of demand (read+write) MSHR misses
system.cpu0.icache.overall_mshr_misses::cpu0.inst          824                       # number of overall MSHR misses
system.cpu0.icache.overall_mshr_misses::total          824                       # number of overall MSHR misses
system.cpu0.icache.ReadReq_mshr_miss_latency::cpu0.inst     51826122                       # number of ReadReq MSHR miss cycles
system.cpu0.icache.ReadReq_mshr_miss_latency::total     51826122                       # number of ReadReq MSHR miss cycles
system.cpu0.icache.demand_mshr_miss_latency::cpu0.inst     51826122                       # number of demand (read+write) MSHR miss cycles
system.cpu0.icache.demand_mshr_miss_latency::total     51826122                       # number of demand (read+write) MSHR miss cycles
system.cpu0.icache.overall_mshr_miss_latency::cpu0.inst     51826122                       # number of overall MSHR miss cycles
system.cpu0.icache.overall_mshr_miss_latency::total     51826122                       # number of overall MSHR miss cycles
system.cpu0.icache.ReadReq_mshr_miss_rate::cpu0.inst     0.023584                       # mshr miss rate for ReadReq accesses
system.cpu0.icache.ReadReq_mshr_miss_rate::total     0.023584                       # mshr miss rate for ReadReq accesses
system.cpu0.icache.demand_mshr_miss_rate::cpu0.inst     0.023584                       # mshr miss rate for demand accesses
system.cpu0.icache.demand_mshr_miss_rate::total     0.023584                       # mshr miss rate for demand accesses
system.cpu0.icache.overall_mshr_miss_rate::cpu0.inst     0.023584                       # mshr miss rate for overall accesses
system.cpu0.icache.overall_mshr_miss_rate::total     0.023584                       # mshr miss rate for overall accesses
system.cpu0.icache.ReadReq_avg_mshr_miss_latency::cpu0.inst 62895.779126                       # average ReadReq mshr miss latency
system.cpu0.icache.ReadReq_avg_mshr_miss_latency::total 62895.779126                       # average ReadReq mshr miss latency
system.cpu0.icache.demand_avg_mshr_miss_latency::cpu0.inst 62895.779126                       # average overall mshr miss latency
system.cpu0.icache.demand_avg_mshr_miss_latency::total 62895.779126                       # average overall mshr miss latency
system.cpu0.icache.overall_avg_mshr_miss_latency::cpu0.inst 62895.779126                       # average overall mshr miss latency
system.cpu0.icache.overall_avg_mshr_miss_latency::total 62895.779126                       # average overall mshr miss latency
system.cpu0.itb_walker_cache.tags.pwrStateResidencyTicks::UNDEFINED    411121467                       # Cumulative time (in ticks) in various power states
system.cpu0.itb_walker_cache.tags.replacements            0                       # number of replacements
system.cpu0.itb_walker_cache.tags.tagsinuse            0                       # Cycle average of tags in use
system.cpu0.itb_walker_cache.tags.total_refs            0                       # Total number of references to valid blocks.
system.cpu0.itb_walker_cache.tags.sampled_refs            0                       # Sample count of references to valid blocks.
system.cpu0.itb_walker_cache.tags.avg_refs          nan                       # Average number of references to valid blocks.
system.cpu0.itb_walker_cache.tags.warmup_cycle            0                       # Cycle when the warmup percentage was hit.
system.cpu0.itb_walker_cache.tags.tag_accesses            0                       # Number of tag accesses
system.cpu0.itb_walker_cache.tags.data_accesses            0                       # Number of data accesses
system.cpu0.itb_walker_cache.pwrStateResidencyTicks::UNDEFINED    411121467                       # Cumulative time (in ticks) in various power states
system.cpu0.itb_walker_cache.blocked_cycles::no_mshrs            0                       # number of cycles access was blocked
system.cpu0.itb_walker_cache.blocked_cycles::no_targets            0                       # number of cycles access was blocked
system.cpu0.itb_walker_cache.blocked::no_mshrs            0                       # number of cycles access was blocked
system.cpu0.itb_walker_cache.blocked::no_targets            0                       # number of cycles access was blocked
system.cpu0.itb_walker_cache.avg_blocked_cycles::no_mshrs          nan                       # average number of cycles each access was blocked
system.cpu0.itb_walker_cache.avg_blocked_cycles::no_targets          nan                       # average number of cycles each access was blocked
system.cpu0.l2cache.tags.pwrStateResidencyTicks::UNDEFINED    411121467                       # Cumulative time (in ticks) in various power states
system.cpu0.l2cache.tags.replacements            2613                       # number of replacements
system.cpu0.l2cache.tags.tagsinuse        2883.042742                       # Cycle average of tags in use
system.cpu0.l2cache.tags.total_refs              5762                       # Total number of references to valid blocks.
system.cpu0.l2cache.tags.sampled_refs            6667                       # Sample count of references to valid blocks.
system.cpu0.l2cache.tags.avg_refs            0.864257                       # Average number of references to valid blocks.
system.cpu0.l2cache.tags.warmup_cycle           73000                       # Cycle when the warmup percentage was hit.
system.cpu0.l2cache.tags.occ_blocks::writebacks     2.657807                       # Average occupied blocks per requestor
system.cpu0.l2cache.tags.occ_blocks::cpu0.inst   455.652219                       # Average occupied blocks per requestor
system.cpu0.l2cache.tags.occ_blocks::cpu0.data  2424.732715                       # Average occupied blocks per requestor
system.cpu0.l2cache.tags.occ_percent::writebacks     0.000649                       # Average percentage of cache occupancy
system.cpu0.l2cache.tags.occ_percent::cpu0.inst     0.111243                       # Average percentage of cache occupancy
system.cpu0.l2cache.tags.occ_percent::cpu0.data     0.591976                       # Average percentage of cache occupancy
system.cpu0.l2cache.tags.occ_percent::total     0.703868                       # Average percentage of cache occupancy
system.cpu0.l2cache.tags.occ_task_id_blocks::1024         4054                       # Occupied blocks per task id
system.cpu0.l2cache.tags.age_task_id_blocks_1024::0          146                       # Occupied blocks per task id
system.cpu0.l2cache.tags.age_task_id_blocks_1024::1          110                       # Occupied blocks per task id
system.cpu0.l2cache.tags.age_task_id_blocks_1024::2         3798                       # Occupied blocks per task id
system.cpu0.l2cache.tags.occ_task_id_percent::1024     0.989746                       # Percentage of cache occupancy per task id
system.cpu0.l2cache.tags.tag_accesses           56387                       # Number of tag accesses
system.cpu0.l2cache.tags.data_accesses          56387                       # Number of data accesses
system.cpu0.l2cache.pwrStateResidencyTicks::UNDEFINED    411121467                       # Cumulative time (in ticks) in various power states
system.cpu0.l2cache.WritebackDirty_hits::writebacks         5282                       # number of WritebackDirty hits
system.cpu0.l2cache.WritebackDirty_hits::total         5282                       # number of WritebackDirty hits
system.cpu0.l2cache.WritebackClean_hits::writebacks          309                       # number of WritebackClean hits
system.cpu0.l2cache.WritebackClean_hits::total          309                       # number of WritebackClean hits
system.cpu0.l2cache.ReadExReq_hits::cpu0.data            6                       # number of ReadExReq hits
system.cpu0.l2cache.ReadExReq_hits::total            6                       # number of ReadExReq hits
system.cpu0.l2cache.ReadCleanReq_hits::cpu0.inst           58                       # number of ReadCleanReq hits
system.cpu0.l2cache.ReadCleanReq_hits::total           58                       # number of ReadCleanReq hits
system.cpu0.l2cache.ReadSharedReq_hits::cpu0.data           10                       # number of ReadSharedReq hits
system.cpu0.l2cache.ReadSharedReq_hits::total           10                       # number of ReadSharedReq hits
system.cpu0.l2cache.demand_hits::cpu0.inst           58                       # number of demand (read+write) hits
system.cpu0.l2cache.demand_hits::cpu0.data           16                       # number of demand (read+write) hits
system.cpu0.l2cache.demand_hits::total             74                       # number of demand (read+write) hits
system.cpu0.l2cache.overall_hits::cpu0.inst           58                       # number of overall hits
system.cpu0.l2cache.overall_hits::cpu0.data           16                       # number of overall hits
system.cpu0.l2cache.overall_hits::total            74                       # number of overall hits
system.cpu0.l2cache.ReadExReq_misses::cpu0.data         5735                       # number of ReadExReq misses
[...]
system.l3.demand_mshr_miss_latency::cpu1.inst     39587194                       # number of demand (read+write) MSHR miss cycles
system.l3.demand_mshr_miss_latency::cpu1.data    262929495                       # number of demand (read+write) MSHR miss cycles
system.l3.demand_mshr_miss_latency::cpu2.inst     40930318                       # number of demand (read+write) MSHR miss cycles
system.l3.demand_mshr_miss_latency::cpu2.data    261082673                       # number of demand (read+write) MSHR miss cycles
system.l3.demand_mshr_miss_latency::cpu3.inst     40782435                       # number of demand (read+write) MSHR miss cycles
system.l3.demand_mshr_miss_latency::cpu3.data    262906624                       # number of demand (read+write) MSHR miss cycles
system.l3.demand_mshr_miss_latency::total   1212058580                       # number of demand (read+write) MSHR miss cycles
system.l3.overall_mshr_miss_latency::cpu0.inst     40127996                       # number of overall MSHR miss cycles
system.l3.overall_mshr_miss_latency::cpu0.data    263711845                       # number of overall MSHR miss cycles
system.l3.overall_mshr_miss_latency::cpu1.inst     39587194                       # number of overall MSHR miss cycles
system.l3.overall_mshr_miss_latency::cpu1.data    262929495                       # number of overall MSHR miss cycles
system.l3.overall_mshr_miss_latency::cpu2.inst     40930318                       # number of overall MSHR miss cycles
system.l3.overall_mshr_miss_latency::cpu2.data    261082673                       # number of overall MSHR miss cycles
system.l3.overall_mshr_miss_latency::cpu3.inst     40782435                       # number of overall MSHR miss cycles
system.l3.overall_mshr_miss_latency::cpu3.data    262906624                       # number of overall MSHR miss cycles
system.l3.overall_mshr_miss_latency::total   1212058580                       # number of overall MSHR miss cycles
system.l3.ReadExReq_mshr_miss_rate::cpu0.data            1                       # mshr miss rate for ReadExReq accesses
system.l3.ReadExReq_mshr_miss_rate::cpu1.data     0.999655                       # mshr miss rate for ReadExReq accesses
system.l3.ReadExReq_mshr_miss_rate::cpu2.data     0.999828                       # mshr miss rate for ReadExReq accesses
system.l3.ReadExReq_mshr_miss_rate::cpu3.data     0.999825                       # mshr miss rate for ReadExReq accesses
system.l3.ReadExReq_mshr_miss_rate::total     0.999826                       # mshr miss rate for ReadExReq accesses
system.l3.ReadSharedReq_mshr_miss_rate::cpu0.inst     0.998695                       # mshr miss rate for ReadSharedReq accesses
system.l3.ReadSharedReq_mshr_miss_rate::cpu0.data     0.961538                       # mshr miss rate for ReadSharedReq accesses
system.l3.ReadSharedReq_mshr_miss_rate::cpu1.inst     0.994778                       # mshr miss rate for ReadSharedReq accesses
system.l3.ReadSharedReq_mshr_miss_rate::cpu1.data     0.958824                       # mshr miss rate for ReadSharedReq accesses
system.l3.ReadSharedReq_mshr_miss_rate::cpu2.inst     0.997396                       # mshr miss rate for ReadSharedReq accesses
system.l3.ReadSharedReq_mshr_miss_rate::cpu2.data     0.964286                       # mshr miss rate for ReadSharedReq accesses
system.l3.ReadSharedReq_mshr_miss_rate::cpu3.inst     0.998686                       # mshr miss rate for ReadSharedReq accesses
system.l3.ReadSharedReq_mshr_miss_rate::cpu3.data     0.959302                       # mshr miss rate for ReadSharedReq accesses
system.l3.ReadSharedReq_mshr_miss_rate::total     0.990877                       # mshr miss rate for ReadSharedReq accesses
system.l3.demand_mshr_miss_rate::cpu0.inst     0.998695                       # mshr miss rate for demand accesses
system.l3.demand_mshr_miss_rate::cpu0.data     0.998981                       # mshr miss rate for demand accesses
system.l3.demand_mshr_miss_rate::cpu1.inst     0.994778                       # mshr miss rate for demand accesses
system.l3.demand_mshr_miss_rate::cpu1.data     0.998492                       # mshr miss rate for demand accesses
system.l3.demand_mshr_miss_rate::cpu2.inst     0.997396                       # mshr miss rate for demand accesses
system.l3.demand_mshr_miss_rate::cpu2.data     0.998828                       # mshr miss rate for demand accesses
system.l3.demand_mshr_miss_rate::cpu3.inst     0.998686                       # mshr miss rate for demand accesses
system.l3.demand_mshr_miss_rate::cpu3.data     0.998639                       # mshr miss rate for demand accesses
system.l3.demand_mshr_miss_rate::total       0.998581                       # mshr miss rate for demand accesses
system.l3.overall_mshr_miss_rate::cpu0.inst     0.998695                       # mshr miss rate for overall accesses
system.l3.overall_mshr_miss_rate::cpu0.data     0.998981                       # mshr miss rate for overall accesses
system.l3.overall_mshr_miss_rate::cpu1.inst     0.994778                       # mshr miss rate for overall accesses
system.l3.overall_mshr_miss_rate::cpu1.data     0.998492                       # mshr miss rate for overall accesses
system.l3.overall_mshr_miss_rate::cpu2.inst     0.997396                       # mshr miss rate for overall accesses
system.l3.overall_mshr_miss_rate::cpu2.data     0.998828                       # mshr miss rate for overall accesses
system.l3.overall_mshr_miss_rate::cpu3.inst     0.998686                       # mshr miss rate for overall accesses
system.l3.overall_mshr_miss_rate::cpu3.data     0.998639                       # mshr miss rate for overall accesses
system.l3.overall_mshr_miss_rate::total      0.998581                       # mshr miss rate for overall accesses
system.l3.ReadExReq_avg_mshr_miss_latency::cpu0.data 44195.863969                       # average ReadExReq mshr miss latency
system.l3.ReadExReq_avg_mshr_miss_latency::cpu1.data 43343.601104                       # average ReadExReq mshr miss latency
system.l3.ReadExReq_avg_mshr_miss_latency::cpu2.data 43147.867333                       # average ReadExReq mshr miss latency
system.l3.ReadExReq_avg_mshr_miss_latency::cpu3.data 44182.493079                       # average ReadExReq mshr miss latency
system.l3.ReadExReq_avg_mshr_miss_latency::total 43714.174992                       # average ReadExReq mshr miss latency
system.l3.ReadSharedReq_avg_mshr_miss_latency::cpu0.inst 52454.896732                       # average ReadSharedReq mshr miss latency
system.l3.ReadSharedReq_avg_mshr_miss_latency::cpu0.data 68618.406667                       # average ReadSharedReq mshr miss latency
system.l3.ReadSharedReq_avg_mshr_miss_latency::cpu1.inst 51951.698163                       # average ReadSharedReq mshr miss latency
system.l3.ReadSharedReq_avg_mshr_miss_latency::cpu1.data 71840.386503                       # average ReadSharedReq mshr miss latency
system.l3.ReadSharedReq_avg_mshr_miss_latency::cpu2.inst 53433.835509                       # average ReadSharedReq mshr miss latency
system.l3.ReadSharedReq_avg_mshr_miss_latency::cpu2.data 65755.870370                       # average ReadSharedReq mshr miss latency
system.l3.ReadSharedReq_avg_mshr_miss_latency::cpu3.inst 53661.098684                       # average ReadSharedReq mshr miss latency
system.l3.ReadSharedReq_avg_mshr_miss_latency::cpu3.data 65194.763636                       # average ReadSharedReq mshr miss latency
system.l3.ReadSharedReq_avg_mshr_miss_latency::total 55467.174113                       # average ReadSharedReq mshr miss latency
system.l3.demand_avg_mshr_miss_latency::cpu0.inst 52454.896732                       # average overall mshr miss latency
system.l3.demand_avg_mshr_miss_latency::cpu0.data 44818.464480                       # average overall mshr miss latency
system.l3.demand_avg_mshr_miss_latency::cpu1.inst 51951.698163                       # average overall mshr miss latency
system.l3.demand_avg_mshr_miss_latency::cpu1.data 44123.090284                       # average overall mshr miss latency
system.l3.demand_avg_mshr_miss_latency::cpu2.inst 53433.835509                       # average overall mshr miss latency
system.l3.demand_avg_mshr_miss_latency::cpu2.data 43761.762152                       # average overall mshr miss latency
system.l3.demand_avg_mshr_miss_latency::cpu3.inst 53661.098684                       # average overall mshr miss latency
system.l3.demand_avg_mshr_miss_latency::cpu3.data 44772.926431                       # average overall mshr miss latency
system.l3.demand_avg_mshr_miss_latency::total 45337.719010                       # average overall mshr miss latency
system.l3.overall_avg_mshr_miss_latency::cpu0.inst 52454.896732                       # average overall mshr miss latency
system.l3.overall_avg_mshr_miss_latency::cpu0.data 44818.464480                       # average overall mshr miss latency
system.l3.overall_avg_mshr_miss_latency::cpu1.inst 51951.698163                       # average overall mshr miss latency
system.l3.overall_avg_mshr_miss_latency::cpu1.data 44123.090284                       # average overall mshr miss latency
system.l3.overall_avg_mshr_miss_latency::cpu2.inst 53433.835509                       # average overall mshr miss latency
system.l3.overall_avg_mshr_miss_latency::cpu2.data 43761.762152                       # average overall mshr miss latency
system.l3.overall_avg_mshr_miss_latency::cpu3.inst 53661.098684                       # average overall mshr miss latency
system.l3.overall_avg_mshr_miss_latency::cpu3.data 44772.926431                       # average overall mshr miss latency
system.l3.overall_avg_mshr_miss_latency::total 45337.719010                       # average overall mshr miss latency
system.membus.snoop_filter.tot_requests         26925                       # Total number of requests made to the snoop filter.
system.membus.snoop_filter.hit_single_requests          192                       # Number of requests hitting in the snoop filter with a single holder of the requested data.
system.membus.snoop_filter.hit_multi_requests            0                       # Number of requests hitting in the snoop filter with multiple (>1) holders of the requested data.
system.membus.snoop_filter.tot_snoops               0                       # Total number of snoops made to the snoop filter.
system.membus.snoop_filter.hit_single_snoops            0                       # Number of snoops hitting in the snoop filter with a single holder of the requested data.
system.membus.snoop_filter.hit_multi_snoops            0                       # Number of snoops hitting in the snoop filter with multiple (>1) holders of the requested data.
system.membus.pwrStateResidencyTicks::UNDEFINED    411121467                       # Cumulative time (in ticks) in various power states
system.membus.trans_dist::ReadResp               3693                       # Transaction distribution
system.membus.trans_dist::WritebackDirty          134                       # Transaction distribution
system.membus.trans_dist::CleanEvict               58                       # Transaction distribution
system.membus.trans_dist::ReadExReq             23040                       # Transaction distribution
system.membus.trans_dist::ReadExResp            23039                       # Transaction distribution
system.membus.trans_dist::ReadSharedReq          3693                       # Transaction distribution
system.membus.pkt_count_system.l3.mem_side::system.mem_ctrls.port        53657                       # Packet count per connected master and slave (bytes)
system.membus.pkt_count_system.l3.mem_side::total        53657                       # Packet count per connected master and slave (bytes)
system.membus.pkt_count::total                  53657                       # Packet count per connected master and slave (bytes)
system.membus.pkt_size_system.l3.mem_side::system.mem_ctrls.port      1719424                       # Cumulative packet size per connected master and slave (bytes)
system.membus.pkt_size_system.l3.mem_side::total      1719424                       # Cumulative packet size per connected master and slave (bytes)
system.membus.pkt_size::total                 1719424                       # Cumulative packet size per connected master and slave (bytes)
system.membus.snoops                                0                       # Total snoops (count)
system.membus.snoopTraffic                          0                       # Total snoop traffic (bytes)
system.membus.snoop_fanout::samples             26733                       # Request fanout histogram
system.membus.snoop_fanout::mean                    0                       # Request fanout histogram
system.membus.snoop_fanout::stdev                   0                       # Request fanout histogram
system.membus.snoop_fanout::underflows              0      0.00%      0.00% # Request fanout histogram
system.membus.snoop_fanout::0                   26733    100.00%    100.00% # Request fanout histogram
system.membus.snoop_fanout::1                       0      0.00%    100.00% # Request fanout histogram
system.membus.snoop_fanout::overflows               0      0.00%    100.00% # Request fanout histogram
system.membus.snoop_fanout::min_value               0                       # Request fanout histogram
system.membus.snoop_fanout::max_value               0                       # Request fanout histogram
system.membus.snoop_fanout::total               26733                       # Request fanout histogram
system.membus.reqLayer8.occupancy            36060794                       # Layer occupancy (ticks)
system.membus.reqLayer8.utilization               8.8                       # Layer utilization (%)
system.membus.respLayer1.occupancy          143224253                       # Layer occupancy (ticks)
system.membus.respLayer1.utilization             34.8                       # Layer utilization (%)
system.tol3bus.snoop_filter.tot_requests        35538                       # Total number of requests made to the snoop filter.
system.tol3bus.snoop_filter.hit_single_requests         8766                       # Number of requests hitting in the snoop filter with a single holder of the requested data.
system.tol3bus.snoop_filter.hit_multi_requests            0                       # Number of requests hitting in the snoop filter with multiple (>1) holders of the requested data.
system.tol3bus.snoop_filter.tot_snoops             79                       # Total number of snoops made to the snoop filter.
system.tol3bus.snoop_filter.hit_single_snoops           79                       # Number of snoops hitting in the snoop filter with a single holder of the requested data.
system.tol3bus.snoop_filter.hit_multi_snoops            0                       # Number of snoops hitting in the snoop filter with multiple (>1) holders of the requested data.
system.tol3bus.pwrStateResidencyTicks::UNDEFINED    411121467                       # Cumulative time (in ticks) in various power states
system.tol3bus.trans_dist::ReadResp              3727                       # Transaction distribution
system.tol3bus.trans_dist::WritebackDirty         7733                       # Transaction distribution
system.tol3bus.trans_dist::CleanEvict            1304                       # Transaction distribution
system.tol3bus.trans_dist::ReadExReq            23045                       # Transaction distribution
system.tol3bus.trans_dist::ReadExResp           23043                       # Transaction distribution
system.tol3bus.trans_dist::ReadSharedReq         3727                       # Transaction distribution
system.tol3bus.pkt_count_system.cpu0.l2cache.mem_side::system.l3.cpu_side        15469                       # Packet count per connected master and slave (bytes)
system.tol3bus.pkt_count_system.cpu1.l2cache.mem_side::system.l3.cpu_side        15705                       # Packet count per connected master and slave (bytes)
system.tol3bus.pkt_count_system.cpu2.l2cache.mem_side::system.l3.cpu_side        15731                       # Packet count per connected master and slave (bytes)
system.tol3bus.pkt_count_system.cpu3.l2cache.mem_side::system.l3.cpu_side        15403                       # Packet count per connected master and slave (bytes)
system.tol3bus.pkt_count::total                 62308                       # Packet count per connected master and slave (bytes)
system.tol3bus.pkt_size_system.cpu0.l2cache.mem_side::system.l3.cpu_side       546688                       # Cumulative packet size per connected master and slave (bytes)
system.tol3bus.pkt_size_system.cpu1.l2cache.mem_side::system.l3.cpu_side       555584                       # Cumulative packet size per connected master and slave (bytes)
system.tol3bus.pkt_size_system.cpu2.l2cache.mem_side::system.l3.cpu_side       555456                       # Cumulative packet size per connected master and slave (bytes)
system.tol3bus.pkt_size_system.cpu3.l2cache.mem_side::system.l3.cpu_side       541888                       # Cumulative packet size per connected master and slave (bytes)
system.tol3bus.pkt_size::total                2199616                       # Cumulative packet size per connected master and slave (bytes)
system.tol3bus.snoops                             271                       # Total snoops (count)
system.tol3bus.snoopTraffic                      8576                       # Total snoop traffic (bytes)
system.tol3bus.snoop_fanout::samples            27043                       # Request fanout histogram
system.tol3bus.snoop_fanout::mean            0.002921                       # Request fanout histogram
system.tol3bus.snoop_fanout::stdev           0.053971                       # Request fanout histogram
system.tol3bus.snoop_fanout::underflows             0      0.00%      0.00% # Request fanout histogram
system.tol3bus.snoop_fanout::0                  26964     99.71%     99.71% # Request fanout histogram
system.tol3bus.snoop_fanout::1                     79      0.29%    100.00% # Request fanout histogram
system.tol3bus.snoop_fanout::2                      0      0.00%    100.00% # Request fanout histogram
system.tol3bus.snoop_fanout::3                      0      0.00%    100.00% # Request fanout histogram
system.tol3bus.snoop_fanout::4                      0      0.00%    100.00% # Request fanout histogram
system.tol3bus.snoop_fanout::overflows              0      0.00%    100.00% # Request fanout histogram
system.tol3bus.snoop_fanout::min_value              0                       # Request fanout histogram
system.tol3bus.snoop_fanout::max_value              1                       # Request fanout histogram
system.tol3bus.snoop_fanout::total              27043                       # Request fanout histogram
system.tol3bus.reqLayer0.occupancy           69167106                       # Layer occupancy (ticks)
system.tol3bus.reqLayer0.utilization             16.8                       # Layer utilization (%)
system.tol3bus.respLayer0.occupancy          21127479                       # Layer occupancy (ticks)
system.tol3bus.respLayer0.utilization             5.1                       # Layer utilization (%)
system.tol3bus.respLayer1.occupancy          21374069                       # Layer occupancy (ticks)
system.tol3bus.respLayer1.utilization             5.2                       # Layer utilization (%)
system.tol3bus.respLayer2.occupancy          21394093                       # Layer occupancy (ticks)
system.tol3bus.respLayer2.utilization             5.2                       # Layer utilization (%)
system.tol3bus.respLayer3.occupancy          21078664                       # Layer occupancy (ticks)
system.tol3bus.respLayer3.utilization             5.1                       # Layer utilization (%)

---------- End Simulation Statistics   ----------
