
---------- Begin Simulation Statistics ----------
sim_seconds                                  0.003454                       # Number of seconds simulated
sim_ticks                                  3454145064                       # Number of ticks simulated
final_tick                                 3454145064                       # Number of ticks from beginning of simulation (restored from checkpoints and never reset)
sim_freq                                 1000000000000                       # Frequency of simulated ticks
host_inst_rate                                 174051                       # Simulator instruction rate (inst/s)
host_op_rate                                   318569                       # Simulator op (including micro ops) rate (op/s)
host_tick_rate                               15113297                       # Simulator tick rate (ticks/s)
host_mem_usage                               33813652                       # Number of bytes of host memory used
host_seconds                                   228.55                       # Real time elapsed on the host
sim_insts                                    39779356                       # Number of instructions simulated
sim_ops                                      72808946                       # Number of ops (including micro ops) simulated
system.voltage_domain.voltage                       1                       # Voltage in Volts
system.clk_domain.clock                          1000                       # Clock period in ticks
system.mem_ctrls.pwrStateResidencyTicks::UNDEFINED   3454145064                       # Cumulative time (in ticks) in various power states
system.mem_ctrls.bytes_read::cpu0.inst          40256                       # Number of bytes read from this memory
system.mem_ctrls.bytes_read::cpu0.data        1832192                       # Number of bytes read from this memory
system.mem_ctrls.bytes_read::cpu1.inst          40128                       # Number of bytes read from this memory
system.mem_ctrls.bytes_read::cpu1.data        1838848                       # Number of bytes read from this memory
system.mem_ctrls.bytes_read::cpu2.inst          40256                       # Number of bytes read from this memory
system.mem_ctrls.bytes_read::cpu2.data        1837056                       # Number of bytes read from this memory
system.mem_ctrls.bytes_read::cpu3.inst          40384                       # Number of bytes read from this memory
system.mem_ctrls.bytes_read::cpu3.data        1833792                       # Number of bytes read from this memory
system.mem_ctrls.bytes_read::total            7502912                       # Number of bytes read from this memory
system.mem_ctrls.bytes_inst_read::cpu0.inst        40256                       # Number of instructions bytes read from this memory
system.mem_ctrls.bytes_inst_read::cpu1.inst        40128                       # Number of instructions bytes read from this memory
system.mem_ctrls.bytes_inst_read::cpu2.inst        40256                       # Number of instructions bytes read from this memory
system.mem_ctrls.bytes_inst_read::cpu3.inst        40384                       # Number of instructions bytes read from this memory
system.mem_ctrls.bytes_inst_read::total        161024                       # Number of instructions bytes read from this memory
system.mem_ctrls.bytes_written::writebacks      3607616                       # Number of bytes written to this memory
system.mem_ctrls.bytes_written::total         3607616                       # Number of bytes written to this memory
system.mem_ctrls.num_reads::cpu0.inst             629                       # Number of read requests responded to by this memory
system.mem_ctrls.num_reads::cpu0.data           28628                       # Number of read requests responded to by this memory
system.mem_ctrls.num_reads::cpu1.inst             627                       # Number of read requests responded to by this memory
system.mem_ctrls.num_reads::cpu1.data           28732                       # Number of read requests responded to by this memory
system.mem_ctrls.num_reads::cpu2.inst             629                       # Number of read requests responded to by this memory
system.mem_ctrls.num_reads::cpu2.data           28704                       # Number of read requests responded to by this memory
system.mem_ctrls.num_reads::cpu3.inst             631                       # Number of read requests responded to by this memory
system.mem_ctrls.num_reads::cpu3.data           28653                       # Number of read requests responded to by this memory
system.mem_ctrls.num_reads::total              117233                       # Number of read requests responded to by this memory
system.mem_ctrls.num_writes::writebacks         56369                       # Number of write requests responded to by this memory
system.mem_ctrls.num_writes::total              56369                       # Number of write requests responded to by this memory
system.mem_ctrls.bw_read::cpu0.inst          11654403                       # Total read bandwidth from this memory (bytes/s)
system.mem_ctrls.bw_read::cpu0.data         530432847                       # Total read bandwidth from this memory (bytes/s)
system.mem_ctrls.bw_read::cpu1.inst          11617346                       # Total read bandwidth from this memory (bytes/s)
system.mem_ctrls.bw_read::cpu1.data         532359807                       # Total read bandwidth from this memory (bytes/s)
system.mem_ctrls.bw_read::cpu2.inst          11654403                       # Total read bandwidth from this memory (bytes/s)
system.mem_ctrls.bw_read::cpu2.data         531841010                       # Total read bandwidth from this memory (bytes/s)
system.mem_ctrls.bw_read::cpu3.inst          11691460                       # Total read bandwidth from this memory (bytes/s)
system.mem_ctrls.bw_read::cpu3.data         530896059                       # Total read bandwidth from this memory (bytes/s)
system.mem_ctrls.bw_read::total            2172147336                       # Total read bandwidth from this memory (bytes/s)
system.mem_ctrls.bw_inst_read::cpu0.inst     11654403                       # Instruction read bandwidth from this memory (bytes/s)
system.mem_ctrls.bw_inst_read::cpu1.inst     11617346                       # Instruction read bandwidth from this memory (bytes/s)
system.mem_ctrls.bw_inst_read::cpu2.inst     11654403                       # Instruction read bandwidth from this memory (bytes/s)
system.mem_ctrls.bw_inst_read::cpu3.inst     11691460                       # Instruction read bandwidth from this memory (bytes/s)
system.mem_ctrls.bw_inst_read::total         46617614                       # Instruction read bandwidth from this memory (bytes/s)
system.mem_ctrls.bw_write::writebacks      1044430947                       # Write bandwidth from this memory (bytes/s)
system.mem_ctrls.bw_write::total           1044430947                       # Write bandwidth from this memory (bytes/s)
system.mem_ctrls.bw_total::writebacks      1044430947                       # Total bandwidth to/from this memory (bytes/s)
system.mem_ctrls.bw_total::cpu0.inst         11654403                       # Total bandwidth to/from this memory (bytes/s)
system.mem_ctrls.bw_total::cpu0.data        530432847                       # Total bandwidth to/from this memory (bytes/s)
system.mem_ctrls.bw_total::cpu1.inst         11617346                       # Total bandwidth to/from this memory (bytes/s)
system.mem_ctrls.bw_total::cpu1.data        532359807                       # Total bandwidth to/from this memory (bytes/s)
system.mem_ctrls.bw_total::cpu2.inst         11654403                       # Total bandwidth to/from this memory (bytes/s)
system.mem_ctrls.bw_total::cpu2.data        531841010                       # Total bandwidth to/from this memory (bytes/s)
system.mem_ctrls.bw_total::cpu3.inst         11691460                       # Total bandwidth to/from this memory (bytes/s)
system.mem_ctrls.bw_total::cpu3.data        530896059                       # Total bandwidth to/from this memory (bytes/s)
system.mem_ctrls.bw_total::total           3216578283                       # Total bandwidth to/from this memory (bytes/s)
system.pwrStateResidencyTicks::UNDEFINED   3454145064                       # Cumulative time (in ticks) in various power states
system.cpu0.branchPred.lookups                1871710                       # Number of BP lookups
system.cpu0.branchPred.condPredicted          1871710                       # Number of conditional branches predicted
system.cpu0.branchPred.condIncorrect            21218                       # Number of conditional branches incorrect
system.cpu0.branchPred.BTBLookups             1537011                       # Number of BTB lookups
system.cpu0.branchPred.BTBHits                      0                       # Number of BTB hits
system.cpu0.branchPred.BTBCorrect                   0                       # Number of correct BTB predictions (this stat may not work properly.
system.cpu0.branchPred.BTBHitPct             0.000000                       # BTB Hit Percentage
system.cpu0.branchPred.usedRAS                  19057                       # Number of times the RAS was used to get a target.
system.cpu0.branchPred.RASInCorrect               396                       # Number of incorrect RAS predictions.
system.cpu0.branchPred.indirectLookups        1537011                       # Number of indirect predictor lookups.
system.cpu0.branchPred.indirectHits            931883                       # Number of indirect target hits.
system.cpu0.branchPred.indirectMisses          605128                       # Number of indirect misses.
system.cpu0.branchPredindirectMispredicted         2065                       # Number of mispredicted indirect branches.
system.cpu_voltage_domain.voltage                   1                       # Voltage in Volts
system.cpu_clk_domain.clock                       333                       # Clock period in ticks
system.cpu0.dtb.walker.pwrStateResidencyTicks::UNDEFINED   3454145064                       # Cumulative time (in ticks) in various power states
system.cpu0.dtb.rdAccesses                    4310603                       # TLB accesses on read requests
system.cpu0.dtb.wrAccesses                    2143172                       # TLB accesses on write requests
system.cpu0.dtb.rdMisses                         1672                       # TLB misses on read requests
system.cpu0.dtb.wrMisses                         3993                       # TLB misses on write requests
system.cpu0.apic_clk_domain.clock                5328                       # Clock period in ticks
system.cpu0.interrupts.pwrStateResidencyTicks::UNDEFINED   3454145064                       # Cumulative time (in ticks) in various power states
system.cpu0.itb.walker.pwrStateResidencyTicks::UNDEFINED   3454145064                       # Cumulative time (in ticks) in various power states
system.cpu0.itb.rdAccesses                          0                       # TLB accesses on read requests
system.cpu0.itb.wrAccesses                    1456817                       # TLB accesses on write requests
system.cpu0.itb.rdMisses                            0                       # TLB misses on read requests
system.cpu0.itb.wrMisses                          157                       # TLB misses on write requests
system.cpu0.workload.numSyscalls                   61                       # Number of system calls
system.cpu0.pwrStateResidencyTicks::ON     3454145064                       # Cumulative time (in ticks) in various power states
system.cpu0.numCycles                        10372809                       # number of cpu cycles simulated
system.cpu0.numWorkItemsStarted                     0                       # number of work items this cpu started
system.cpu0.numWorkItemsCompleted                   0                       # number of work items this cpu completed
system.cpu0.fetch.icacheStallCycles           1496219                       # Number of cycles fetch is stalled on an Icache miss
system.cpu0.fetch.Insts                      10805261                       # Number of instructions fetch has processed
system.cpu0.fetch.Branches                    1871710                       # Number of branches that fetch encountered
system.cpu0.fetch.predictedBranches            950940                       # Number of branches that fetch has predicted taken
system.cpu0.fetch.Cycles                      8789236                       # Number of cycles fetch has run and was not squashing or blocked
system.cpu0.fetch.SquashCycles                  42806                       # Number of cycles fetch has spent squashing
system.cpu0.fetch.MiscStallCycles                 170                       # Number of cycles fetch has spent waiting on interrupts, or bad addresses, or out of MSHRs
system.cpu0.fetch.PendingTrapStallCycles          505                       # Number of stall cycles due to pending traps
system.cpu0.fetch.PendingQuiesceStallCycles            6                       # Number of stall cycles due to pending quiesce instructions
system.cpu0.fetch.IcacheWaitRetryStallCycles          124                       # Number of stall cycles due to full MSHR
system.cpu0.fetch.CacheLines                  1456712                       # Number of cache lines fetched
system.cpu0.fetch.IcacheSquashes                 2574                       # Number of outstanding Icache misses that were squashed
system.cpu0.fetch.rateDist::samples          10307663                       # Number of instructions fetched each cycle (Total)
system.cpu0.fetch.rateDist::mean             1.914281                       # Number of instructions fetched each cycle (Total)
system.cpu0.fetch.rateDist::stdev            3.119652                       # Number of instructions fetched each cycle (Total)
system.cpu0.fetch.rateDist::underflows              0      0.00%      0.00% # Number of instructions fetched each cycle (Total)
system.cpu0.fetch.rateDist::0                 7265544     70.49%     70.49% # Number of instructions fetched each cycle (Total)
system.cpu0.fetch.rateDist::1                   83585      0.81%     71.30% # Number of instructions fetched each cycle (Total)
system.cpu0.fetch.rateDist::2                   56477      0.55%     71.85% # Number of instructions fetched each cycle (Total)
system.cpu0.fetch.rateDist::3                   36539      0.35%     72.20% # Number of instructions fetched each cycle (Total)
system.cpu0.fetch.rateDist::4                  199926      1.94%     74.14% # Number of instructions fetched each cycle (Total)
system.cpu0.fetch.rateDist::5                  582162      5.65%     79.79% # Number of instructions fetched each cycle (Total)
system.cpu0.fetch.rateDist::6                  321558      3.12%     82.91% # Number of instructions fetched each cycle (Total)
system.cpu0.fetch.rateDist::7                  309229      3.00%     85.91% # Number of instructions fetched each cycle (Total)
system.cpu0.fetch.rateDist::8                 1452643     14.09%    100.00% # Number of instructions fetched each cycle (Total)
system.cpu0.fetch.rateDist::overflows               0      0.00%    100.00% # Number of instructions fetched each cycle (Total)
system.cpu0.fetch.rateDist::min_value               0                       # Number of instructions fetched each cycle (Total)
system.cpu0.fetch.rateDist::max_value               8                       # Number of instructions fetched each cycle (Total)
system.cpu0.fetch.rateDist::total            10307663                       # Number of instructions fetched each cycle (Total)
system.cpu0.fetch.branchRate                 0.180444                       # Number of branch fetches per cycle
system.cpu0.fetch.rate                       1.041691                       # Number of inst fetches per cycle
system.cpu0.decode.IdleCycles                  863138                       # Number of cycles decode is idle
system.cpu0.decode.BlockedCycles              6752449                       # Number of cycles decode is blocked
system.cpu0.decode.RunCycles                  2160564                       # Number of cycles decode is running
system.cpu0.decode.UnblockCycles               510109                       # Number of cycles decode is unblocking
system.cpu0.decode.SquashCycles                 21403                       # Number of cycles decode is squashing
system.cpu0.decode.DecodedInsts              19379903                       # Number of instructions handled by decode
system.cpu0.rename.SquashCycles                 21403                       # Number of cycles rename is squashing
system.cpu0.rename.IdleCycles                 1159221                       # Number of cycles rename is idle
system.cpu0.rename.BlockCycles                2181469                       # Number of cycles rename is blocking
system.cpu0.rename.serializeStallCycles          5671                       # count of cycles rename stalled for serializing inst
system.cpu0.rename.RunCycles                  2371712                       # Number of cycles rename is running
system.cpu0.rename.UnblockCycles              4568187                       # Number of cycles rename is unblocking
system.cpu0.rename.RenamedInsts              19248037                       # Number of instructions processed by rename
system.cpu0.rename.ROBFullEvents                  965                       # Number of times rename has blocked due to ROB full
system.cpu0.rename.IQFullEvents                 32020                       # Number of times rename has blocked due to IQ full
system.cpu0.rename.LQFullEvents                  9161                       # Number of times rename has blocked due to LQ full
system.cpu0.rename.SQFullEvents               4302780                       # Number of times rename has blocked due to SQ full
system.cpu0.rename.RenamedOperands           22183152                       # Number of destination operands rename has renamed
system.cpu0.rename.RenameLookups             48826830                       # Number of register rename lookups that rename has made
system.cpu0.rename.int_rename_lookups        29847519                       # Number of integer rename lookups
system.cpu0.rename.fp_rename_lookups             1270                       # Number of floating rename lookups
system.cpu0.rename.CommittedMaps             20866131                       # Number of HB maps that are committed
system.cpu0.rename.UndoneMaps                 1316926                       # Number of HB maps that are undone due to squashing
system.cpu0.rename.serializingInsts                96                       # count of serializing insts renamed
system.cpu0.rename.tempSerializingInsts            93                       # count of temporary serializing insts renamed
system.cpu0.rename.skidInsts                  3719102                       # count of insts added to the skid buffer
system.cpu0.memDep0.insertedLoads             4336783                       # Number of loads inserted to the mem dependence unit.
system.cpu0.memDep0.insertedStores            2198369                       # Number of stores inserted to the mem dependence unit.
system.cpu0.memDep0.conflictingLoads           754520                       # Number of conflicting loads.
system.cpu0.memDep0.conflictingStores          234968                       # Number of conflicting stores.
system.cpu0.iq.iqInstsAdded                  19117359                       # Number of instructions added to the IQ (excludes non-spec)
system.cpu0.iq.iqNonSpecInstsAdded                370                       # Number of non-speculative instructions added to the IQ
system.cpu0.iq.iqInstsIssued                 18917386                       # Number of instructions issued
system.cpu0.iq.iqSquashedInstsIssued             1199                       # Number of squashed instructions issued
system.cpu0.iq.iqSquashedInstsExamined         993170                       # Number of squashed instructions iterated over during squash; mainly for profiling
system.cpu0.iq.iqSquashedOperandsExamined       911216                       # Number of squashed operands that are examined and possibly removed from graph
system.cpu0.iq.iqSquashedNonSpecRemoved           237                       # Number of squashed non-spec instructions that were removed
system.cpu0.iq.issued_per_cycle::samples     10307663                       # Number of insts issued each cycle
system.cpu0.iq.issued_per_cycle::mean        1.835274                       # Number of insts issued each cycle
system.cpu0.iq.issued_per_cycle::stdev       2.459527                       # Number of insts issued each cycle
system.cpu0.iq.issued_per_cycle::underflows            0      0.00%      0.00% # Number of insts issued each cycle
system.cpu0.iq.issued_per_cycle::0            5549396     53.84%     53.84% # Number of insts issued each cycle
system.cpu0.iq.issued_per_cycle::1             746407      7.24%     61.08% # Number of insts issued each cycle
system.cpu0.iq.issued_per_cycle::2             563406      5.47%     66.54% # Number of insts issued each cycle
system.cpu0.iq.issued_per_cycle::3             958910      9.30%     75.85% # Number of insts issued each cycle
system.cpu0.iq.issued_per_cycle::4             664529      6.45%     82.29% # Number of insts issued each cycle
system.cpu0.iq.issued_per_cycle::5             603867      5.86%     88.15% # Number of insts issued each cycle
system.cpu0.iq.issued_per_cycle::6             373804      3.63%     91.78% # Number of insts issued each cycle
system.cpu0.iq.issued_per_cycle::7             531590      5.16%     96.94% # Number of insts issued each cycle
system.cpu0.iq.issued_per_cycle::8             315754      3.06%    100.00% # Number of insts issued each cycle
system.cpu0.iq.issued_per_cycle::overflows            0      0.00%    100.00% # Number of insts issued each cycle
system.cpu0.iq.issued_per_cycle::min_value            0                       # Number of insts issued each cycle
system.cpu0.iq.issued_per_cycle::max_value            8                       # Number of insts issued each cycle
system.cpu0.iq.issued_per_cycle::total       10307663                       # Number of insts issued each cycle
system.cpu0.iq.fu_full::No_OpClass                  0      0.00%      0.00% # attempts to use FU when none available
system.cpu0.iq.fu_full::IntAlu                  29664     22.09%     22.09% # attempts to use FU when none available
system.cpu0.iq.fu_full::IntMult                     0      0.00%     22.09% # attempts to use FU when none available
system.cpu0.iq.fu_full::IntDiv                      0      0.00%     22.09% # attempts to use FU when none available
system.cpu0.iq.fu_full::FloatAdd                   11      0.01%     22.10% # attempts to use FU when none available
system.cpu0.iq.fu_full::FloatCmp                    0      0.00%     22.10% # attempts to use FU when none available
system.cpu0.iq.fu_full::FloatCvt                    0      0.00%     22.10% # attempts to use FU when none available
system.cpu0.iq.fu_full::FloatMult                   0      0.00%     22.10% # attempts to use FU when none available
system.cpu0.iq.fu_full::FloatMultAcc                0      0.00%     22.10% # attempts to use FU when none available
system.cpu0.iq.fu_full::FloatDiv                    0      0.00%     22.10% # attempts to use FU when none available
system.cpu0.iq.fu_full::FloatMisc                   0      0.00%     22.10% # attempts to use FU when none available
system.cpu0.iq.fu_full::FloatSqrt                   0      0.00%     22.10% # attempts to use FU when none available
system.cpu0.iq.fu_full::SimdAdd                     0      0.00%     22.10% # attempts to use FU when none available
system.cpu0.iq.fu_full::SimdAddAcc                  0      0.00%     22.10% # attempts to use FU when none available
system.cpu0.iq.fu_full::SimdAlu                     0      0.00%     22.10% # attempts to use FU when none available
system.cpu0.iq.fu_full::SimdCmp                     0      0.00%     22.10% # attempts to use FU when none available
system.cpu0.iq.fu_full::SimdCvt                     0      0.00%     22.10% # attempts to use FU when none available
system.cpu0.iq.fu_full::SimdMisc                    0      0.00%     22.10% # attempts to use FU when none available
system.cpu0.iq.fu_full::SimdMult                    0      0.00%     22.10% # attempts to use FU when none available
system.cpu0.iq.fu_full::SimdMultAcc                 0      0.00%     22.10% # attempts to use FU when none available
system.cpu0.iq.fu_full::SimdShift                   0      0.00%     22.10% # attempts to use FU when none available
system.cpu0.iq.fu_full::SimdShiftAcc                0      0.00%     22.10% # attempts to use FU when none available
system.cpu0.iq.fu_full::SimdSqrt                    0      0.00%     22.10% # attempts to use FU when none available
system.cpu0.iq.fu_full::SimdFloatAdd                0      0.00%     22.10% # attempts to use FU when none available
system.cpu0.iq.fu_full::SimdFloatAlu                0      0.00%     22.10% # attempts to use FU when none available
system.cpu0.iq.fu_full::SimdFloatCmp                0      0.00%     22.10% # attempts to use FU when none available
system.cpu0.iq.fu_full::SimdFloatCvt                0      0.00%     22.10% # attempts to use FU when none available
system.cpu0.iq.fu_full::SimdFloatDiv                0      0.00%     22.10% # attempts to use FU when none available
system.cpu0.iq.fu_full::SimdFloatMisc               0      0.00%     22.10% # attempts to use FU when none available
system.cpu0.iq.fu_full::SimdFloatMult               0      0.00%     22.10% # attempts to use FU when none available
system.cpu0.iq.fu_full::SimdFloatMultAcc            0      0.00%     22.10% # attempts to use FU when none available
system.cpu0.iq.fu_full::SimdFloatSqrt               0      0.00%     22.10% # attempts to use FU when none available
system.cpu0.iq.fu_full::MemRead                100585     74.91%     97.02% # attempts to use FU when none available
system.cpu0.iq.fu_full::MemWrite                 3965      2.95%     99.97% # attempts to use FU when none available
system.cpu0.iq.fu_full::FloatMemRead                2      0.00%     99.97% # attempts to use FU when none available
system.cpu0.iq.fu_full::FloatMemWrite              40      0.03%    100.00% # attempts to use FU when none available
system.cpu0.iq.fu_full::IprAccess                   0      0.00%    100.00% # attempts to use FU when none available
system.cpu0.iq.fu_full::InstPrefetch                0      0.00%    100.00% # attempts to use FU when none available
system.cpu0.iq.FU_type_0::No_OpClass            50299      0.27%      0.27% # Type of FU issued
system.cpu0.iq.FU_type_0::IntAlu             12397806     65.54%     65.80% # Type of FU issued
system.cpu0.iq.FU_type_0::IntMult                  78      0.00%     65.80% # Type of FU issued
system.cpu0.iq.FU_type_0::IntDiv                   52      0.00%     65.80% # Type of FU issued
system.cpu0.iq.FU_type_0::FloatAdd                390      0.00%     65.81% # Type of FU issued
system.cpu0.iq.FU_type_0::FloatCmp                  0      0.00%     65.81% # Type of FU issued
system.cpu0.iq.FU_type_0::FloatCvt                  0      0.00%     65.81% # Type of FU issued
system.cpu0.iq.FU_type_0::FloatMult                 0      0.00%     65.81% # Type of FU issued
system.cpu0.iq.FU_type_0::FloatMultAcc              0      0.00%     65.81% # Type of FU issued
system.cpu0.iq.FU_type_0::FloatDiv                  0      0.00%     65.81% # Type of FU issued
system.cpu0.iq.FU_type_0::FloatMisc                 0      0.00%     65.81% # Type of FU issued
system.cpu0.iq.FU_type_0::FloatSqrt                 0      0.00%     65.81% # Type of FU issued
system.cpu0.iq.FU_type_0::SimdAdd                   0      0.00%     65.81% # Type of FU issued
system.cpu0.iq.FU_type_0::SimdAddAcc                0      0.00%     65.81% # Type of FU issued
system.cpu0.iq.FU_type_0::SimdAlu                   0      0.00%     65.81% # Type of FU issued
system.cpu0.iq.FU_type_0::SimdCmp                   0      0.00%     65.81% # Type of FU issued
system.cpu0.iq.FU_type_0::SimdCvt                   0      0.00%     65.81% # Type of FU issued
system.cpu0.iq.FU_type_0::SimdMisc                  0      0.00%     65.81% # Type of FU issued
system.cpu0.iq.FU_type_0::SimdMult                  0      0.00%     65.81% # Type of FU issued
system.cpu0.iq.FU_type_0::SimdMultAcc               0      0.00%     65.81% # Type of FU issued
system.cpu0.iq.FU_type_0::SimdShift                 0      0.00%     65.81% # Type of FU issued
system.cpu0.iq.FU_type_0::SimdShiftAcc              0      0.00%     65.81% # Type of FU issued
system.cpu0.iq.FU_type_0::SimdSqrt                  0      0.00%     65.81% # Type of FU issued
system.cpu0.iq.FU_type_0::SimdFloatAdd              0      0.00%     65.81% # Type of FU issued
system.cpu0.iq.FU_type_0::SimdFloatAlu              0      0.00%     65.81% # Type of FU issued
system.cpu0.iq.FU_type_0::SimdFloatCmp              0      0.00%     65.81% # Type of FU issued
system.cpu0.iq.FU_type_0::SimdFloatCvt              0      0.00%     65.81% # Type of FU issued
system.cpu0.iq.FU_type_0::SimdFloatDiv              0      0.00%     65.81% # Type of FU issued
system.cpu0.iq.FU_type_0::SimdFloatMisc             0      0.00%     65.81% # Type of FU issued
system.cpu0.iq.FU_type_0::SimdFloatMult             0      0.00%     65.81% # Type of FU issued
system.cpu0.iq.FU_type_0::SimdFloatMultAcc            0      0.00%     65.81% # Type of FU issued
system.cpu0.iq.FU_type_0::SimdFloatSqrt             0      0.00%     65.81% # Type of FU issued
system.cpu0.iq.FU_type_0::MemRead             4320905     22.84%     88.65% # Type of FU issued
system.cpu0.iq.FU_type_0::MemWrite            2147519     11.35%    100.00% # Type of FU issued
system.cpu0.iq.FU_type_0::FloatMemRead             76      0.00%    100.00% # Type of FU issued
system.cpu0.iq.FU_type_0::FloatMemWrite           261      0.00%    100.00% # Type of FU issued
system.cpu0.iq.FU_type_0::IprAccess                 0      0.00%    100.00% # Type of FU issued
system.cpu0.iq.FU_type_0::InstPrefetch              0      0.00%    100.00% # Type of FU issued
system.cpu0.iq.FU_type_0::total              18917386                       # Type of FU issued
system.cpu0.iq.rate                          1.823748                       # Inst issue rate
system.cpu0.iq.fu_busy_cnt                     134267                       # FU busy when requested
system.cpu0.iq.fu_busy_rate                  0.007098                       # FU busy rate (busy events/executed inst)
system.cpu0.iq.int_inst_queue_reads          48276198                       # Number of integer instruction queue reads
system.cpu0.iq.int_inst_queue_writes         20109858                       # Number of integer instruction queue writes
system.cpu0.iq.int_inst_queue_wakeup_accesses     18823346                       # Number of integer instruction queue wakeup accesses
system.cpu0.iq.fp_inst_queue_reads               1696                       # Number of floating instruction queue reads
system.cpu0.iq.fp_inst_queue_writes              1174                       # Number of floating instruction queue writes
system.cpu0.iq.fp_inst_queue_wakeup_accesses          697                       # Number of floating instruction queue wakeup accesses
system.cpu0.iq.vec_inst_queue_reads                 0                       # Number of vector instruction queue reads
system.cpu0.iq.vec_inst_queue_writes                0                       # Number of vector instruction queue writes
system.cpu0.iq.vec_inst_queue_wakeup_accesses            0                       # Number of vector instruction queue wakeup accesses
system.cpu0.iq.int_alu_accesses              19000538                       # Number of integer alu accesses
system.cpu0.iq.fp_alu_accesses                    816                       # Number of floating point alu accesses
system.cpu0.iq.vec_alu_accesses                     0                       # Number of vector alu accesses
system.cpu0.iew.lsq.thread0.forwLoads         2395299                       # Number of loads that had data forwarded from stores
system.cpu0.iew.lsq.thread0.invAddrLoads            0                       # Number of loads ignored due to an invalid address
system.cpu0.iew.lsq.thread0.squashedLoads       210166                       # Number of loads squashed
system.cpu0.iew.lsq.thread0.ignoredResponses         3496                       # Number of memory responses ignored because the instruction is squashed
system.cpu0.iew.lsq.thread0.memOrderViolation          138                       # Number of memory ordering violations
system.cpu0.iew.lsq.thread0.squashedStores       119915                       # Number of stores squashed
system.cpu0.iew.lsq.thread0.invAddrSwpfs            0                       # Number of software prefetches ignored due to an invalid address
system.cpu0.iew.lsq.thread0.blockedLoads            0                       # Number of blocked loads due to partial load-store forwarding
system.cpu0.iew.lsq.thread0.rescheduledLoads            7                       # Number of loads that were rescheduled
system.cpu0.iew.lsq.thread0.cacheBlocked        28978                       # Number of times an access to memory failed due to the cache being blocked
system.cpu0.iew.iewIdleCycles                       0                       # Number of cycles IEW is idle
system.cpu0.iew.iewSquashCycles                 21403                       # Number of cycles IEW is squashing
system.cpu0.iew.iewBlockCycles                 123308                       # Number of cycles IEW is blocking
system.cpu0.iew.iewUnblockCycles              2025902                       # Number of cycles IEW is unblocking
system.cpu0.iew.iewDispatchedInsts           19117729                       # Number of instructions dispatched to IQ
system.cpu0.iew.iewDispSquashedInsts              183                       # Number of squashed instructions skipped by dispatch
system.cpu0.iew.iewDispLoadInsts              4336783                       # Number of dispatched load instructions
system.cpu0.iew.iewDispStoreInsts             2198369                       # Number of dispatched store instructions
system.cpu0.iew.iewDispNonSpecInsts               180                       # Number of dispatched non-speculative instructions
system.cpu0.iew.iewIQFullEvents                   107                       # Number of times the IQ has become full, causing a stall
system.cpu0.iew.iewLSQFullEvents              2018082                       # Number of times the LSQ has become full, causing a stall
system.cpu0.iew.memOrderViolationEvents           138                       # Number of memory order violations
system.cpu0.iew.predictedTakenIncorrect         16242                       # Number of branches that were predicted taken incorrectly
system.cpu0.iew.predictedNotTakenIncorrect         6612                       # Number of branches that were predicted not taken incorrectly
system.cpu0.iew.branchMispredicts               22854                       # Number of branch mispredicts detected at execute
system.cpu0.iew.iewExecutedInsts             18875162                       # Number of executed instructions
system.cpu0.iew.iewExecLoadInsts              4310593                       # Number of load instructions executed
system.cpu0.iew.iewExecSquashedInsts            42217                       # Number of squashed instructions skipped in execute
system.cpu0.iew.exec_swp                            0                       # number of swp insts executed
system.cpu0.iew.exec_nop                            0                       # number of nop insts executed
system.cpu0.iew.exec_refs                     6453758                       # number of memory reference insts executed
system.cpu0.iew.exec_branches                 1775698                       # Number of branches executed
system.cpu0.iew.exec_stores                   2143165                       # Number of stores executed
system.cpu0.iew.exec_rate                    1.819677                       # Inst execution rate
system.cpu0.iew.wb_sent                      18839142                       # cumulative count of insts sent to commit
system.cpu0.iew.wb_count                     18824043                       # cumulative count of insts written-back
system.cpu0.iew.wb_producers                 14101684                       # num instructions producing a value
system.cpu0.iew.wb_consumers                 21137405                       # num instructions consuming a value
system.cpu0.iew.wb_rate                      1.814749                       # insts written-back per cycle
system.cpu0.iew.wb_fanout                    0.667144                       # average fanout of values written-back
system.cpu0.commit.commitSquashedInsts         993253                       # The number of squashed insts skipped by commit
system.cpu0.commit.commitNonSpecStalls            133                       # The number of times commit has been forced to stall to communicate backwards
system.cpu0.commit.branchMispredicts            21274                       # The number of times a branch was mispredicted
system.cpu0.commit.committed_per_cycle::samples     10172298                       # Number of insts commited each cycle
system.cpu0.commit.committed_per_cycle::mean     1.781750                       # Number of insts commited each cycle
system.cpu0.commit.committed_per_cycle::stdev     2.780414                       # Number of insts commited each cycle
system.cpu0.commit.committed_per_cycle::underflows            0      0.00%      0.00% # Number of insts commited each cycle
system.cpu0.commit.committed_per_cycle::0      5785504     56.88%     56.88% # Number of insts commited each cycle
system.cpu0.commit.committed_per_cycle::1      1371946     13.49%     70.36% # Number of insts commited each cycle
system.cpu0.commit.committed_per_cycle::2        86066      0.85%     71.21% # Number of insts commited each cycle
system.cpu0.commit.committed_per_cycle::3      1098198     10.80%     82.00% # Number of insts commited each cycle
system.cpu0.commit.committed_per_cycle::4        90548      0.89%     82.89% # Number of insts commited each cycle
system.cpu0.commit.committed_per_cycle::5       166354      1.64%     84.53% # Number of insts commited each cycle
system.cpu0.commit.committed_per_cycle::6       236500      2.32%     86.85% # Number of insts commited each cycle
system.cpu0.commit.committed_per_cycle::7        24597      0.24%     87.10% # Number of insts commited each cycle
system.cpu0.commit.committed_per_cycle::8      1312585     12.90%    100.00% # Number of insts commited each cycle
system.cpu0.commit.committed_per_cycle::overflows            0      0.00%    100.00% # Number of insts commited each cycle
system.cpu0.commit.committed_per_cycle::min_value            0                       # Number of insts commited each cycle
system.cpu0.commit.committed_per_cycle::max_value            8                       # Number of insts commited each cycle
system.cpu0.commit.committed_per_cycle::total     10172298                       # Number of insts commited each cycle
system.cpu0.commit.committedInsts             9902948                       # Number of instructions committed
system.cpu0.commit.committedOps              18124493                       # Number of ops (including micro ops) committed
system.cpu0.commit.swp_count                        0                       # Number of s/w prefetches committed
system.cpu0.commit.refs                       6205048                       # Number of memory references committed
system.cpu0.commit.loads                      4126602                       # Number of loads committed
system.cpu0.commit.membars                         48                       # Number of memory barriers committed
system.cpu0.commit.branches                   1720505                       # Number of branches committed
system.cpu0.commit.vec_insts                        0                       # Number of committed Vector instructions.
system.cpu0.commit.fp_insts                       620                       # Number of committed floating point instructions.
system.cpu0.commit.int_insts                 18075374                       # Number of committed integer instructions.
system.cpu0.commit.function_calls               17253                       # Number of function calls committed.
system.cpu0.commit.op_class_0::No_OpClass        48710      0.27%      0.27% # Class of committed instruction
system.cpu0.commit.op_class_0::IntAlu        11870261     65.49%     65.76% # Class of committed instruction
system.cpu0.commit.op_class_0::IntMult             70      0.00%     65.76% # Class of committed instruction
system.cpu0.commit.op_class_0::IntDiv              42      0.00%     65.76% # Class of committed instruction
system.cpu0.commit.op_class_0::FloatAdd           362      0.00%     65.76% # Class of committed instruction
system.cpu0.commit.op_class_0::FloatCmp             0      0.00%     65.76% # Class of committed instruction
system.cpu0.commit.op_class_0::FloatCvt             0      0.00%     65.76% # Class of committed instruction
system.cpu0.commit.op_class_0::FloatMult            0      0.00%     65.76% # Class of committed instruction
system.cpu0.commit.op_class_0::FloatMultAcc            0      0.00%     65.76% # Class of committed instruction
system.cpu0.commit.op_class_0::FloatDiv             0      0.00%     65.76% # Class of committed instruction
system.cpu0.commit.op_class_0::FloatMisc            0      0.00%     65.76% # Class of committed instruction
system.cpu0.commit.op_class_0::FloatSqrt            0      0.00%     65.76% # Class of committed instruction
system.cpu0.commit.op_class_0::SimdAdd              0      0.00%     65.76% # Class of committed instruction
system.cpu0.commit.op_class_0::SimdAddAcc            0      0.00%     65.76% # Class of committed instruction
system.cpu0.commit.op_class_0::SimdAlu              0      0.00%     65.76% # Class of committed instruction
system.cpu0.commit.op_class_0::SimdCmp              0      0.00%     65.76% # Class of committed instruction
system.cpu0.commit.op_class_0::SimdCvt              0      0.00%     65.76% # Class of committed instruction
system.cpu0.commit.op_class_0::SimdMisc             0      0.00%     65.76% # Class of committed instruction
system.cpu0.commit.op_class_0::SimdMult             0      0.00%     65.76% # Class of committed instruction
system.cpu0.commit.op_class_0::SimdMultAcc            0      0.00%     65.76% # Class of committed instruction
system.cpu0.commit.op_class_0::SimdShift            0      0.00%     65.76% # Class of committed instruction
system.cpu0.commit.op_class_0::SimdShiftAcc            0      0.00%     65.76% # Class of committed instruction
system.cpu0.commit.op_class_0::SimdSqrt             0      0.00%     65.76% # Class of committed instruction
system.cpu0.commit.op_class_0::SimdFloatAdd            0      0.00%     65.76% # Class of committed instruction
system.cpu0.commit.op_class_0::SimdFloatAlu            0      0.00%     65.76% # Class of committed instruction
system.cpu0.commit.op_class_0::SimdFloatCmp            0      0.00%     65.76% # Class of committed instruction
system.cpu0.commit.op_class_0::SimdFloatCvt            0      0.00%     65.76% # Class of committed instruction
system.cpu0.commit.op_class_0::SimdFloatDiv            0      0.00%     65.76% # Class of committed instruction
system.cpu0.commit.op_class_0::SimdFloatMisc            0      0.00%     65.76% # Class of committed instruction
system.cpu0.commit.op_class_0::SimdFloatMult            0      0.00%     65.76% # Class of committed instruction
system.cpu0.commit.op_class_0::SimdFloatMultAcc            0      0.00%     65.76% # Class of committed instruction
system.cpu0.commit.op_class_0::SimdFloatSqrt            0      0.00%     65.76% # Class of committed instruction
system.cpu0.commit.op_class_0::MemRead        4126536     22.77%     88.53% # Class of committed instruction
system.cpu0.commit.op_class_0::MemWrite       2078286     11.47%    100.00% # Class of committed instruction
system.cpu0.commit.op_class_0::FloatMemRead           66      0.00%    100.00% # Class of committed instruction
system.cpu0.commit.op_class_0::FloatMemWrite          160      0.00%    100.00% # Class of committed instruction
system.cpu0.commit.op_class_0::IprAccess            0      0.00%    100.00% # Class of committed instruction
system.cpu0.commit.op_class_0::InstPrefetch            0      0.00%    100.00% # Class of committed instruction
system.cpu0.commit.op_class_0::total         18124493                       # Class of committed instruction
system.cpu0.commit.bw_lim_events              1312585                       # number cycles where commit BW limit reached
system.cpu0.rob.rob_reads                    27977459                       # The number of ROB reads
system.cpu0.rob.rob_writes                   38371427                       # The number of ROB writes
system.cpu0.timesIdled                            377                       # Number of times that the entire CPU went into an idle state and unscheduled itself
system.cpu0.idleCycles                          65146                       # Total number of cycles that the CPU has spent unscheduled due to idling
system.cpu0.committedInsts                    9902948                       # Number of Instructions Simulated
system.cpu0.committedOps                     18124493                       # Number of Ops (including micro ops) Simulated
system.cpu0.cpi                              1.047447                       # CPI: Cycles Per Instruction
system.cpu0.cpi_total                        1.047447                       # CPI: Total CPI of All Threads
system.cpu0.ipc                              0.954703                       # IPC: Instructions Per Cycle
system.cpu0.ipc_total                        0.954703                       # IPC: Total IPC of All Threads
system.cpu0.int_regfile_reads                29154083                       # number of integer regfile reads
system.cpu0.int_regfile_writes               14901544                       # number of integer regfile writes
system.cpu0.fp_regfile_reads                     1043                       # number of floating regfile reads
system.cpu0.fp_regfile_writes                     414                       # number of floating regfile writes
system.cpu0.cc_regfile_reads                  8615250                       # number of cc regfile reads
system.cpu0.cc_regfile_writes                 6807880                       # number of cc regfile writes
system.cpu0.misc_regfile_reads                9951567                       # number of misc regfile reads
system.cpu0.dcache.tags.pwrStateResidencyTicks::UNDEFINED   3454145064                       # Cumulative time (in ticks) in various power states
system.cpu0.dcache.tags.replacements            28378                       # number of replacements
system.cpu0.dcache.tags.tagsinuse          386.977308                       # Cycle average of tags in use
system.cpu0.dcache.tags.total_refs            3914755                       # Total number of references to valid blocks.
system.cpu0.dcache.tags.sampled_refs            28890                       # Sample count of references to valid blocks.
system.cpu0.dcache.tags.avg_refs           135.505538                       # Average number of references to valid blocks.
system.cpu0.dcache.tags.warmup_cycle           200133                       # Cycle when the warmup percentage was hit.
system.cpu0.dcache.tags.occ_blocks::cpu0.data   386.977308                       # Average occupied blocks per requestor
system.cpu0.dcache.tags.occ_percent::cpu0.data     0.755815                       # Average percentage of cache occupancy
system.cpu0.dcache.tags.occ_percent::total     0.755815                       # Average percentage of cache occupancy
system.cpu0.dcache.tags.occ_task_id_blocks::1024          512                       # Occupied blocks per task id
system.cpu0.dcache.tags.age_task_id_blocks_1024::0           21                       # Occupied blocks per task id
system.cpu0.dcache.tags.age_task_id_blocks_1024::1          331                       # Occupied blocks per task id
system.cpu0.dcache.tags.age_task_id_blocks_1024::2           48                       # Occupied blocks per task id
system.cpu0.dcache.tags.age_task_id_blocks_1024::3          112                       # Occupied blocks per task id
system.cpu0.dcache.tags.occ_task_id_percent::1024            1                       # Percentage of cache occupancy per task id
system.cpu0.dcache.tags.tag_accesses         31796066                       # Number of tag accesses
system.cpu0.dcache.tags.data_accesses        31796066                       # Number of data accesses
system.cpu0.dcache.pwrStateResidencyTicks::UNDEFINED   3454145064                       # Cumulative time (in ticks) in various power states
system.cpu0.dcache.ReadReq_hits::cpu0.data      1855915                       # number of ReadReq hits
system.cpu0.dcache.ReadReq_hits::total        1855915                       # number of ReadReq hits
system.cpu0.dcache.WriteReq_hits::cpu0.data      2058832                       # number of WriteReq hits
system.cpu0.dcache.WriteReq_hits::total       2058832                       # number of WriteReq hits
system.cpu0.dcache.demand_hits::cpu0.data      3914747                       # number of demand (read+write) hits
system.cpu0.dcache.demand_hits::total         3914747                       # number of demand (read+write) hits
system.cpu0.dcache.overall_hits::cpu0.data      3914747                       # number of overall hits
system.cpu0.dcache.overall_hits::total        3914747                       # number of overall hits
system.cpu0.dcache.ReadReq_misses::cpu0.data        36549                       # number of ReadReq misses
system.cpu0.dcache.ReadReq_misses::total        36549                       # number of ReadReq misses
system.cpu0.dcache.WriteReq_misses::cpu0.data        19601                       # number of WriteReq misses
system.cpu0.dcache.WriteReq_misses::total        19601                       # number of WriteReq misses
system.cpu0.dcache.demand_misses::cpu0.data        56150                       # number of demand (read+write) misses
system.cpu0.dcache.demand_misses::total         56150                       # number of demand (read+write) misses
system.cpu0.dcache.overall_misses::cpu0.data        56150                       # number of overall misses
system.cpu0.dcache.overall_misses::total        56150                       # number of overall misses
system.cpu0.dcache.ReadReq_miss_latency::cpu0.data   2069121474                       # number of ReadReq miss cycles
system.cpu0.dcache.ReadReq_miss_latency::total   2069121474                       # number of ReadReq miss cycles
system.cpu0.dcache.WriteReq_miss_latency::cpu0.data   1633517767                       # number of WriteReq miss cycles
system.cpu0.dcache.WriteReq_miss_latency::total   1633517767                       # number of WriteReq miss cycles
system.cpu0.dcache.demand_miss_latency::cpu0.data   3702639241                       # number of demand (read+write) miss cycles
system.cpu0.dcache.demand_miss_latency::total   3702639241                       # number of demand (read+write) miss cycles
system.cpu0.dcache.overall_miss_latency::cpu0.data   3702639241                       # number of overall miss cycles
system.cpu0.dcache.overall_miss_latency::total   3702639241                       # number of overall miss cycles
system.cpu0.dcache.ReadReq_accesses::cpu0.data      1892464                       # number of ReadReq accesses(hits+misses)
system.cpu0.dcache.ReadReq_accesses::total      1892464                       # number of ReadReq accesses(hits+misses)
system.cpu0.dcache.WriteReq_accesses::cpu0.data      2078433                       # number of WriteReq accesses(hits+misses)
system.cpu0.dcache.WriteReq_accesses::total      2078433                       # number of WriteReq accesses(hits+misses)
system.cpu0.dcache.demand_accesses::cpu0.data      3970897                       # number of demand (read+write) accesses
system.cpu0.dcache.demand_accesses::total      3970897                       # number of demand (read+write) accesses
system.cpu0.dcache.overall_accesses::cpu0.data      3970897                       # number of overall (read+write) accesses
system.cpu0.dcache.overall_accesses::total      3970897                       # number of overall (read+write) accesses
system.cpu0.dcache.ReadReq_miss_rate::cpu0.data     0.019313                       # miss rate for ReadReq accesses
system.cpu0.dcache.ReadReq_miss_rate::total     0.019313                       # miss rate for ReadReq accesses
system.cpu0.dcache.WriteReq_miss_rate::cpu0.data     0.009431                       # miss rate for WriteReq accesses
system.cpu0.dcache.WriteReq_miss_rate::total     0.009431                       # miss rate for WriteReq accesses
system.cpu0.dcache.demand_miss_rate::cpu0.data     0.014140                       # miss rate for demand accesses
system.cpu0.dcache.demand_miss_rate::total     0.014140                       # miss rate for demand accesses
system.cpu0.dcache.overall_miss_rate::cpu0.data     0.014140                       # miss rate for overall accesses
system.cpu0.dcache.overall_miss_rate::total     0.014140                       # miss rate for overall accesses
system.cpu0.dcache.ReadReq_avg_miss_latency::cpu0.data 56612.259542                       # average ReadReq miss latency
system.cpu0.dcache.ReadReq_avg_miss_latency::total 56612.259542                       # average ReadReq miss latency
system.cpu0.dcache.WriteReq_avg_miss_latency::cpu0.data 83338.491250                       # average WriteReq miss latency
system.cpu0.dcache.WriteReq_avg_miss_latency::total 83338.491250                       # average WriteReq miss latency
system.cpu0.dcache.demand_avg_miss_latency::cpu0.data 65941.927711                       # average overall miss latency
system.cpu0.dcache.demand_avg_miss_latency::total 65941.927711                       # average overall miss latency
system.cpu0.dcache.overall_avg_miss_latency::cpu0.data 65941.927711                       # average overall miss latency
system.cpu0.dcache.overall_avg_miss_latency::total 65941.927711                       # average overall miss latency
system.cpu0.dcache.blocked_cycles::no_mshrs       436719                       # number of cycles access was blocked
system.cpu0.dcache.blocked_cycles::no_targets            0                       # number of cycles access was blocked
system.cpu0.dcache.blocked::no_mshrs             6881                       # number of cycles access was blocked
system.cpu0.dcache.blocked::no_targets              0                       # number of cycles access was blocked
system.cpu0.dcache.avg_blocked_cycles::no_mshrs    63.467374                       # average number of cycles each access was blocked
system.cpu0.dcache.avg_blocked_cycles::no_targets          nan                       # average number of cycles each access was blocked
system.cpu0.dcache.writebacks::writebacks        19348                       # number of writebacks
system.cpu0.dcache.writebacks::total            19348                       # number of writebacks
system.cpu0.dcache.ReadReq_mshr_hits::cpu0.data        27250                       # number of ReadReq MSHR hits
system.cpu0.dcache.ReadReq_mshr_hits::total        27250                       # number of ReadReq MSHR hits
system.cpu0.dcache.WriteReq_mshr_hits::cpu0.data            2                       # number of WriteReq MSHR hits
system.cpu0.dcache.WriteReq_mshr_hits::total            2                       # number of WriteReq MSHR hits
system.cpu0.dcache.demand_mshr_hits::cpu0.data        27252                       # number of demand (read+write) MSHR hits
system.cpu0.dcache.demand_mshr_hits::total        27252                       # number of demand (read+write) MSHR hits
system.cpu0.dcache.overall_mshr_hits::cpu0.data        27252                       # number of overall MSHR hits
system.cpu0.dcache.overall_mshr_hits::total        27252                       # number of overall MSHR hits
system.cpu0.dcache.ReadReq_mshr_misses::cpu0.data         9299                       # number of ReadReq MSHR misses
system.cpu0.dcache.ReadReq_mshr_misses::total         9299                       # number of ReadReq MSHR misses
system.cpu0.dcache.WriteReq_mshr_misses::cpu0.data        19599                       # number of WriteReq MSHR misses
system.cpu0.dcache.WriteReq_mshr_misses::total        19599                       # number of WriteReq MSHR misses
system.cpu0.dcache.demand_mshr_misses::cpu0.data        28898                       # number of demand (read+write) MSHR misses
system.cpu0.dcache.demand_mshr_misses::total        28898                       # number of demand (read+write) MSHR misses
system.cpu0.dcache.overall_mshr_misses::cpu0.data        28898                       # number of overall MSHR misses
system.cpu0.dcache.overall_mshr_misses::total        28898                       # number of overall MSHR misses
system.cpu0.dcache.ReadReq_mshr_miss_latency::cpu0.data    683802846                       # number of ReadReq MSHR miss cycles
system.cpu0.dcache.ReadReq_mshr_miss_latency::total    683802846                       # number of ReadReq MSHR miss cycles
system.cpu0.dcache.WriteReq_mshr_miss_latency::cpu0.data   1620362269                       # number of WriteReq MSHR miss cycles
system.cpu0.dcache.WriteReq_mshr_miss_latency::total   1620362269                       # number of WriteReq MSHR miss cycles
system.cpu0.dcache.demand_mshr_miss_latency::cpu0.data   2304165115                       # number of demand (read+write) MSHR miss cycles
system.cpu0.dcache.demand_mshr_miss_latency::total   2304165115                       # number of demand (read+write) MSHR miss cycles
system.cpu0.dcache.overall_mshr_miss_latency::cpu0.data   2304165115                       # number of overall MSHR miss cycles
system.cpu0.dcache.overall_mshr_miss_latency::total   2304165115                       # number of overall MSHR miss cycles
system.cpu0.dcache.ReadReq_mshr_miss_rate::cpu0.data     0.004914                       # mshr miss rate for ReadReq accesses
system.cpu0.dcache.ReadReq_mshr_miss_rate::total     0.004914                       # mshr miss rate for ReadReq accesses
system.cpu0.dcache.WriteReq_mshr_miss_rate::cpu0.data     0.009430                       # mshr miss rate for WriteReq accesses
system.cpu0.dcache.WriteReq_mshr_miss_rate::total     0.009430                       # mshr miss rate for WriteReq accesses
system.cpu0.dcache.demand_mshr_miss_rate::cpu0.data     0.007277                       # mshr miss rate for demand accesses
system.cpu0.dcache.demand_mshr_miss_rate::total     0.007277                       # mshr miss rate for demand accesses
system.cpu0.dcache.overall_mshr_miss_rate::cpu0.data     0.007277                       # mshr miss rate for overall accesses
system.cpu0.dcache.overall_mshr_miss_rate::total     0.007277                       # mshr miss rate for overall accesses
system.cpu0.dcache.ReadReq_avg_mshr_miss_latency::cpu0.data 73535.094741                       # average ReadReq mshr miss latency
system.cpu0.dcache.ReadReq_avg_mshr_miss_latency::total 73535.094741                       # average ReadReq mshr miss latency
system.cpu0.dcache.WriteReq_avg_mshr_miss_latency::cpu0.data 82675.762488                       # average WriteReq mshr miss latency
system.cpu0.dcache.WriteReq_avg_mshr_miss_latency::total 82675.762488                       # average WriteReq mshr miss latency
system.cpu0.dcache.demand_avg_mshr_miss_latency::cpu0.data 79734.414665                       # average overall mshr miss latency
system.cpu0.dcache.demand_avg_mshr_miss_latency::total 79734.414665                       # average overall mshr miss latency
system.cpu0.dcache.overall_avg_mshr_miss_latency::cpu0.data 79734.414665                       # average overall mshr miss latency
system.cpu0.dcache.overall_avg_mshr_miss_latency::total 79734.414665                       # average overall mshr miss latency
system.cpu0.dtb_walker_cache.tags.pwrStateResidencyTicks::UNDEFINED   3454145064                       # Cumulative time (in ticks) in various power states
system.cpu0.dtb_walker_cache.tags.replacements            0                       # number of replacements
system.cpu0.dtb_walker_cache.tags.tagsinuse            0                       # Cycle average of tags in use
system.cpu0.dtb_walker_cache.tags.total_refs            0                       # Total number of references to valid blocks.
system.cpu0.dtb_walker_cache.tags.sampled_refs            0                       # Sample count of references to valid blocks.
system.cpu0.dtb_walker_cache.tags.avg_refs          nan                       # Average number of references to valid blocks.
system.cpu0.dtb_walker_cache.tags.warmup_cycle            0                       # Cycle when the warmup percentage was hit.
system.cpu0.dtb_walker_cache.tags.tag_accesses            0                       # Number of tag accesses
system.cpu0.dtb_walker_cache.tags.data_accesses            0                       # Number of data accesses
system.cpu0.dtb_walker_cache.pwrStateResidencyTicks::UNDEFINED   3454145064                       # Cumulative time (in ticks) in various power states
system.cpu0.dtb_walker_cache.blocked_cycles::no_mshrs            0                       # number of cycles access was blocked
system.cpu0.dtb_walker_cache.blocked_cycles::no_targets            0                       # number of cycles access was blocked
system.cpu0.dtb_walker_cache.blocked::no_mshrs            0                       # number of cycles access was blocked
system.cpu0.dtb_walker_cache.blocked::no_targets            0                       # number of cycles access was blocked
system.cpu0.dtb_walker_cache.avg_blocked_cycles::no_mshrs          nan                       # average number of cycles each access was blocked
system.cpu0.dtb_walker_cache.avg_blocked_cycles::no_targets          nan                       # average number of cycles each access was blocked
system.cpu0.icache.tags.pwrStateResidencyTicks::UNDEFINED   3454145064                       # Cumulative time (in ticks) in various power states
system.cpu0.icache.tags.replacements              151                       # number of replacements
system.cpu0.icache.tags.tagsinuse          449.339459                       # Cycle average of tags in use
system.cpu0.icache.tags.total_refs            1455904                       # Total number of references to valid blocks.
system.cpu0.icache.tags.sampled_refs              641                       # Sample count of references to valid blocks.
system.cpu0.icache.tags.avg_refs          2271.301092                       # Average number of references to valid blocks.
system.cpu0.icache.tags.warmup_cycle           117216                       # Cycle when the warmup percentage was hit.
system.cpu0.icache.tags.occ_blocks::cpu0.inst   449.339459                       # Average occupied blocks per requestor
system.cpu0.icache.tags.occ_percent::cpu0.inst     0.877616                       # Average percentage of cache occupancy
system.cpu0.icache.tags.occ_percent::total     0.877616                       # Average percentage of cache occupancy
system.cpu0.icache.tags.occ_task_id_blocks::1024          490                       # Occupied blocks per task id
system.cpu0.icache.tags.age_task_id_blocks_1024::2            5                       # Occupied blocks per task id
system.cpu0.icache.tags.age_task_id_blocks_1024::3          485                       # Occupied blocks per task id
system.cpu0.icache.tags.occ_task_id_percent::1024     0.957031                       # Percentage of cache occupancy per task id
system.cpu0.icache.tags.tag_accesses         11654329                       # Number of tag accesses
system.cpu0.icache.tags.data_accesses        11654329                       # Number of data accesses
system.cpu0.icache.pwrStateResidencyTicks::UNDEFINED   3454145064                       # Cumulative time (in ticks) in various power states
system.cpu0.icache.ReadReq_hits::cpu0.inst      1455904                       # number of ReadReq hits
system.cpu0.icache.ReadReq_hits::total        1455904                       # number of ReadReq hits
system.cpu0.icache.demand_hits::cpu0.inst      1455904                       # number of demand (read+write) hits
system.cpu0.icache.demand_hits::total         1455904                       # number of demand (read+write) hits
system.cpu0.icache.overall_hits::cpu0.inst      1455904                       # number of overall hits
system.cpu0.icache.overall_hits::total        1455904                       # number of overall hits
system.cpu0.icache.ReadReq_misses::cpu0.inst          807                       # number of ReadReq misses
system.cpu0.icache.ReadReq_misses::total          807                       # number of ReadReq misses
system.cpu0.icache.demand_misses::cpu0.inst          807                       # number of demand (read+write) misses
system.cpu0.icache.demand_misses::total           807                       # number of demand (read+write) misses
system.cpu0.icache.overall_misses::cpu0.inst          807                       # number of overall misses
system.cpu0.icache.overall_misses::total          807                       # number of overall misses
system.cpu0.icache.ReadReq_miss_latency::cpu0.inst     61699904                       # number of ReadReq miss cycles
system.cpu0.icache.ReadReq_miss_latency::total     61699904                       # number of ReadReq miss cycles
system.cpu0.icache.demand_miss_latency::cpu0.inst     61699904                       # number of demand (read+write) miss cycles
system.cpu0.icache.demand_miss_latency::total     61699904                       # number of demand (read+write) miss cycles
system.cpu0.icache.overall_miss_latency::cpu0.inst     61699904                       # number of overall miss cycles
system.cpu0.icache.overall_miss_latency::total     61699904                       # number of overall miss cycles
system.cpu0.icache.ReadReq_accesses::cpu0.inst      1456711                       # number of ReadReq accesses(hits+misses)
system.cpu0.icache.ReadReq_accesses::total      1456711                       # number of ReadReq accesses(hits+misses)
system.cpu0.icache.demand_accesses::cpu0.inst      1456711                       # number of demand (read+write) accesses
system.cpu0.icache.demand_accesses::total      1456711                       # number of demand (read+write) accesses
system.cpu0.icache.overall_accesses::cpu0.inst      1456711                       # number of overall (read+write) accesses
system.cpu0.icache.overall_accesses::total      1456711                       # number of overall (read+write) accesses
system.cpu0.icache.ReadReq_miss_rate::cpu0.inst     0.000554                       # miss rate for ReadReq accesses
system.cpu0.icache.ReadReq_miss_rate::total     0.000554                       # miss rate for ReadReq accesses
system.cpu0.icache.demand_miss_rate::cpu0.inst     0.000554                       # miss rate for demand accesses
system.cpu0.icache.demand_miss_rate::total     0.000554                       # miss rate for demand accesses
system.cpu0.icache.overall_miss_rate::cpu0.inst     0.000554                       # miss rate for overall accesses
system.cpu0.icache.overall_miss_rate::total     0.000554                       # miss rate for overall accesses
system.cpu0.icache.ReadReq_avg_miss_latency::cpu0.inst 76455.890954                       # average ReadReq miss latency
system.cpu0.icache.ReadReq_avg_miss_latency::total 76455.890954                       # average ReadReq miss latency
system.cpu0.icache.demand_avg_miss_latency::cpu0.inst 76455.890954                       # average overall miss latency
system.cpu0.icache.demand_avg_miss_latency::total 76455.890954                       # average overall miss latency
system.cpu0.icache.overall_avg_miss_latency::cpu0.inst 76455.890954                       # average overall miss latency
system.cpu0.icache.overall_avg_miss_latency::total 76455.890954                       # average overall miss latency
system.cpu0.icache.blocked_cycles::no_mshrs         2017                       # number of cycles access was blocked
system.cpu0.icache.blocked_cycles::no_targets            0                       # number of cycles access was blocked
system.cpu0.icache.blocked::no_mshrs               12                       # number of cycles access was blocked
system.cpu0.icache.blocked::no_targets              0                       # number of cycles access was blocked
system.cpu0.icache.avg_blocked_cycles::no_mshrs   168.083333                       # average number of cycles each access was blocked
system.cpu0.icache.avg_blocked_cycles::no_targets          nan                       # average number of cycles each access was blocked
system.cpu0.icache.writebacks::writebacks          151                       # number of writebacks
system.cpu0.icache.writebacks::total              151                       # number of writebacks
system.cpu0.icache.ReadReq_mshr_hits::cpu0.inst          166                       # number of ReadReq MSHR hits
system.cpu0.icache.ReadReq_mshr_hits::total          166                       # number of ReadReq MSHR hits
system.cpu0.icache.demand_mshr_hits::cpu0.inst          166                       # number of demand (read+write) MSHR hits
system.cpu0.icache.demand_mshr_hits::total          166                       # number of demand (read+write) MSHR hits
system.cpu0.icache.overall_mshr_hits::cpu0.inst          166                       # number of overall MSHR hits
system.cpu0.icache.overall_mshr_hits::total          166                       # number of overall MSHR hits
system.cpu0.icache.ReadReq_mshr_misses::cpu0.inst          641                       # number of ReadReq MSHR misses
system.cpu0.icache.ReadReq_mshr_misses::total          641                       # number of ReadReq MSHR misses
system.cpu0.icache.demand_mshr_misses::cpu0.inst          641                       # number of demand (read+write) MSHR misses
system.cpu0.icache.demand_mshr_misses::total          641                       # number of demand (read+write) MSHR misses
system.cpu0.icache.overall_mshr_misses::cpu0.inst          641                       # number of overall MSHR misses
system.cpu0.icache.overall_mshr_misses::total          641                       # number of overall MSHR misses
system.cpu0.icache.ReadReq_mshr_miss_latency::cpu0.inst     50329286                       # number of ReadReq MSHR miss cycles
system.cpu0.icache.ReadReq_mshr_miss_latency::total     50329286                       # number of ReadReq MSHR miss cycles
system.cpu0.icache.demand_mshr_miss_latency::cpu0.inst     50329286                       # number of demand (read+write) MSHR miss cycles
system.cpu0.icache.demand_mshr_miss_latency::total     50329286                       # number of demand (read+write) MSHR miss cycles
system.cpu0.icache.overall_mshr_miss_latency::cpu0.inst     50329286                       # number of overall MSHR miss cycles
system.cpu0.icache.overall_mshr_miss_latency::total     50329286                       # number of overall MSHR miss cycles
system.cpu0.icache.ReadReq_mshr_miss_rate::cpu0.inst     0.000440                       # mshr miss rate for ReadReq accesses
system.cpu0.icache.ReadReq_mshr_miss_rate::total     0.000440                       # mshr miss rate for ReadReq accesses
system.cpu0.icache.demand_mshr_miss_rate::cpu0.inst     0.000440                       # mshr miss rate for demand accesses
system.cpu0.icache.demand_mshr_miss_rate::total     0.000440                       # mshr miss rate for demand accesses
system.cpu0.icache.overall_mshr_miss_rate::cpu0.inst     0.000440                       # mshr miss rate for overall accesses
system.cpu0.icache.overall_mshr_miss_rate::total     0.000440                       # mshr miss rate for overall accesses
system.cpu0.icache.ReadReq_avg_mshr_miss_latency::cpu0.inst 78516.826833                       # average ReadReq mshr miss latency
system.cpu0.icache.ReadReq_avg_mshr_miss_latency::total 78516.826833                       # average ReadReq mshr miss latency
system.cpu0.icache.demand_avg_mshr_miss_latency::cpu0.inst 78516.826833                       # average overall mshr miss latency
system.cpu0.icache.demand_avg_mshr_miss_latency::total 78516.826833                       # average overall mshr miss latency
system.cpu0.icache.overall_avg_mshr_miss_latency::cpu0.inst 78516.826833                       # average overall mshr miss latency
system.cpu0.icache.overall_avg_mshr_miss_latency::total 78516.826833                       # average overall mshr miss latency
system.cpu0.itb_walker_cache.tags.pwrStateResidencyTicks::UNDEFINED   3454145064                       # Cumulative time (in ticks) in various power states
system.cpu0.itb_walker_cache.tags.replacements            0                       # number of replacements
system.cpu0.itb_walker_cache.tags.tagsinuse            0                       # Cycle average of tags in use
system.cpu0.itb_walker_cache.tags.total_refs            0                       # Total number of references to valid blocks.
system.cpu0.itb_walker_cache.tags.sampled_refs            0                       # Sample count of references to valid blocks.
system.cpu0.itb_walker_cache.tags.avg_refs          nan                       # Average number of references to valid blocks.
system.cpu0.itb_walker_cache.tags.warmup_cycle            0                       # Cycle when the warmup percentage was hit.
system.cpu0.itb_walker_cache.tags.tag_accesses            0                       # Number of tag accesses
system.cpu0.itb_walker_cache.tags.data_accesses            0                       # Number of data accesses
system.cpu0.itb_walker_cache.pwrStateResidencyTicks::UNDEFINED   3454145064                       # Cumulative time (in ticks) in various power states
system.cpu0.itb_walker_cache.blocked_cycles::no_mshrs            0                       # number of cycles access was blocked
system.cpu0.itb_walker_cache.blocked_cycles::no_targets            0                       # number of cycles access was blocked
system.cpu0.itb_walker_cache.blocked::no_mshrs            0                       # number of cycles access was blocked
system.cpu0.itb_walker_cache.blocked::no_targets            0                       # number of cycles access was blocked
system.cpu0.itb_walker_cache.avg_blocked_cycles::no_mshrs          nan                       # average number of cycles each access was blocked
system.cpu0.itb_walker_cache.avg_blocked_cycles::no_targets          nan                       # average number of cycles each access was blocked
system.cpu0.l2cache.tags.pwrStateResidencyTicks::UNDEFINED   3454145064                       # Cumulative time (in ticks) in various power states
system.cpu0.l2cache.tags.replacements           25463                       # number of replacements
system.cpu0.l2cache.tags.tagsinuse        2726.066909                       # Cycle average of tags in use
system.cpu0.l2cache.tags.total_refs             28503                       # Total number of references to valid blocks.
system.cpu0.l2cache.tags.sampled_refs           29559                       # Sample count of references to valid blocks.
system.cpu0.l2cache.tags.avg_refs            0.964275                       # Average number of references to valid blocks.
system.cpu0.l2cache.tags.warmup_cycle          114000                       # Cycle when the warmup percentage was hit.
system.cpu0.l2cache.tags.occ_blocks::writebacks    15.248471                       # Average occupied blocks per requestor
system.cpu0.l2cache.tags.occ_blocks::cpu0.inst   192.013561                       # Average occupied blocks per requestor
system.cpu0.l2cache.tags.occ_blocks::cpu0.data  2518.804877                       # Average occupied blocks per requestor
system.cpu0.l2cache.tags.occ_percent::writebacks     0.003723                       # Average percentage of cache occupancy
system.cpu0.l2cache.tags.occ_percent::cpu0.inst     0.046878                       # Average percentage of cache occupancy
system.cpu0.l2cache.tags.occ_percent::cpu0.data     0.614943                       # Average percentage of cache occupancy
system.cpu0.l2cache.tags.occ_percent::total     0.665544                       # Average percentage of cache occupancy
system.cpu0.l2cache.tags.occ_task_id_blocks::1024         4096                       # Occupied blocks per task id
system.cpu0.l2cache.tags.age_task_id_blocks_1024::0           21                       # Occupied blocks per task id
system.cpu0.l2cache.tags.age_task_id_blocks_1024::1          345                       # Occupied blocks per task id
system.cpu0.l2cache.tags.age_task_id_blocks_1024::2         3709                       # Occupied blocks per task id
system.cpu0.l2cache.tags.age_task_id_blocks_1024::3           21                       # Occupied blocks per task id
system.cpu0.l2cache.tags.occ_task_id_percent::1024            1                       # Percentage of cache occupancy per task id
system.cpu0.l2cache.tags.tag_accesses          261811                       # Number of tag accesses
system.cpu0.l2cache.tags.data_accesses         261811                       # Number of data accesses
system.cpu0.l2cache.pwrStateResidencyTicks::UNDEFINED   3454145064                       # Cumulative time (in ticks) in various power states
system.cpu0.l2cache.WritebackDirty_hits::writebacks        19348                       # number of WritebackDirty hits
system.cpu0.l2cache.WritebackDirty_hits::total        19348                       # number of WritebackDirty hits
system.cpu0.l2cache.WritebackClean_hits::writebacks          150                       # number of WritebackClean hits
system.cpu0.l2cache.WritebackClean_hits::total          150                       # number of WritebackClean hits
system.cpu0.l2cache.UpgradeReq_hits::cpu0.data            8                       # number of UpgradeReq hits
system.cpu0.l2cache.UpgradeReq_hits::total            8                       # number of UpgradeReq hits
system.cpu0.l2cache.ReadCleanReq_hits::cpu0.inst           10                       # number of ReadCleanReq hits
system.cpu0.l2cache.ReadCleanReq_hits::total           10                       # number of ReadCleanReq hits
system.cpu0.l2cache.ReadSharedReq_hits::cpu0.data           32                       # number of ReadSharedReq hits
system.cpu0.l2cache.ReadSharedReq_hits::total           32                       # number of ReadSharedReq hits
system.cpu0.l2cache.demand_hits::cpu0.inst           10                       # number of demand (read+write) hits
system.cpu0.l2cache.demand_hits::cpu0.data           32                       # number of demand (read+write) hits
system.cpu0.l2cache.demand_hits::total             42                       # number of demand (read+write) hits
[...]
system.l3.demand_mshr_miss_latency::cpu2.inst     39988790                       # number of demand (read+write) MSHR miss cycles
system.l3.demand_mshr_miss_latency::cpu2.data   1819627241                       # number of demand (read+write) MSHR miss cycles
system.l3.demand_mshr_miss_latency::cpu3.inst     39309431                       # number of demand (read+write) MSHR miss cycles
system.l3.demand_mshr_miss_latency::cpu3.data   1850888049                       # number of demand (read+write) MSHR miss cycles
system.l3.demand_mshr_miss_latency::total   7516042513                       # number of demand (read+write) MSHR miss cycles
system.l3.overall_mshr_miss_latency::cpu0.inst     40834956                       # number of overall MSHR miss cycles
system.l3.overall_mshr_miss_latency::cpu0.data   1849172543                       # number of overall MSHR miss cycles
system.l3.overall_mshr_miss_latency::cpu1.inst     39499165                       # number of overall MSHR miss cycles
system.l3.overall_mshr_miss_latency::cpu1.data   1836722338                       # number of overall MSHR miss cycles
system.l3.overall_mshr_miss_latency::cpu2.inst     39988790                       # number of overall MSHR miss cycles
system.l3.overall_mshr_miss_latency::cpu2.data   1819627241                       # number of overall MSHR miss cycles
system.l3.overall_mshr_miss_latency::cpu3.inst     39309431                       # number of overall MSHR miss cycles
system.l3.overall_mshr_miss_latency::cpu3.data   1850888049                       # number of overall MSHR miss cycles
system.l3.overall_mshr_miss_latency::total   7516042513                       # number of overall MSHR miss cycles
system.l3.CleanEvict_mshr_miss_rate::writebacks          inf                       # mshr miss rate for CleanEvict accesses
system.l3.CleanEvict_mshr_miss_rate::total          inf                       # mshr miss rate for CleanEvict accesses
system.l3.ReadExReq_mshr_miss_rate::cpu0.data     0.998571                       # mshr miss rate for ReadExReq accesses
system.l3.ReadExReq_mshr_miss_rate::cpu1.data     0.998573                       # mshr miss rate for ReadExReq accesses
system.l3.ReadExReq_mshr_miss_rate::cpu2.data     0.998574                       # mshr miss rate for ReadExReq accesses
system.l3.ReadExReq_mshr_miss_rate::cpu3.data     0.998572                       # mshr miss rate for ReadExReq accesses
system.l3.ReadExReq_mshr_miss_rate::total     0.998572                       # mshr miss rate for ReadExReq accesses
system.l3.ReadSharedReq_mshr_miss_rate::cpu0.inst     0.996830                       # mshr miss rate for ReadSharedReq accesses
system.l3.ReadSharedReq_mshr_miss_rate::cpu0.data     0.978202                       # mshr miss rate for ReadSharedReq accesses
system.l3.ReadSharedReq_mshr_miss_rate::cpu1.inst     0.996820                       # mshr miss rate for ReadSharedReq accesses
system.l3.ReadSharedReq_mshr_miss_rate::cpu1.data     0.978803                       # mshr miss rate for ReadSharedReq accesses
system.l3.ReadSharedReq_mshr_miss_rate::cpu2.inst     0.996830                       # mshr miss rate for ReadSharedReq accesses
system.l3.ReadSharedReq_mshr_miss_rate::cpu2.data     0.973890                       # mshr miss rate for ReadSharedReq accesses
system.l3.ReadSharedReq_mshr_miss_rate::cpu3.inst     0.996840                       # mshr miss rate for ReadSharedReq accesses
system.l3.ReadSharedReq_mshr_miss_rate::cpu3.data     0.979502                       # mshr miss rate for ReadSharedReq accesses
system.l3.ReadSharedReq_mshr_miss_rate::total     0.978815                       # mshr miss rate for ReadSharedReq accesses
system.l3.demand_mshr_miss_rate::cpu0.inst     0.996830                       # mshr miss rate for demand accesses
system.l3.demand_mshr_miss_rate::cpu0.data     0.992030                       # mshr miss rate for demand accesses
system.l3.demand_mshr_miss_rate::cpu1.inst     0.996820                       # mshr miss rate for demand accesses
system.l3.demand_mshr_miss_rate::cpu1.data     0.992196                       # mshr miss rate for demand accesses
system.l3.demand_mshr_miss_rate::cpu2.inst     0.996830                       # mshr miss rate for demand accesses
system.l3.demand_mshr_miss_rate::cpu2.data     0.990613                       # mshr miss rate for demand accesses
system.l3.demand_mshr_miss_rate::cpu3.inst     0.996840                       # mshr miss rate for demand accesses
system.l3.demand_mshr_miss_rate::cpu3.data     0.992449                       # mshr miss rate for demand accesses
system.l3.demand_mshr_miss_rate::total       0.991928                       # mshr miss rate for demand accesses
system.l3.overall_mshr_miss_rate::cpu0.inst     0.996830                       # mshr miss rate for overall accesses
system.l3.overall_mshr_miss_rate::cpu0.data     0.992030                       # mshr miss rate for overall accesses
system.l3.overall_mshr_miss_rate::cpu1.inst     0.996820                       # mshr miss rate for overall accesses
system.l3.overall_mshr_miss_rate::cpu1.data     0.992196                       # mshr miss rate for overall accesses
system.l3.overall_mshr_miss_rate::cpu2.inst     0.996830                       # mshr miss rate for overall accesses
system.l3.overall_mshr_miss_rate::cpu2.data     0.990613                       # mshr miss rate for overall accesses
system.l3.overall_mshr_miss_rate::cpu3.inst     0.996840                       # mshr miss rate for overall accesses
system.l3.overall_mshr_miss_rate::cpu3.data     0.992449                       # mshr miss rate for overall accesses
system.l3.overall_mshr_miss_rate::total      0.991928                       # mshr miss rate for overall accesses
system.l3.ReadExReq_avg_mshr_miss_latency::cpu0.data 66659.215969                       # average ReadExReq mshr miss latency
system.l3.ReadExReq_avg_mshr_miss_latency::cpu1.data 66268.159528                       # average ReadExReq mshr miss latency
system.l3.ReadExReq_avg_mshr_miss_latency::cpu2.data 66061.091057                       # average ReadExReq mshr miss latency
system.l3.ReadExReq_avg_mshr_miss_latency::cpu3.data 66655.529631                       # average ReadExReq mshr miss latency
system.l3.ReadExReq_avg_mshr_miss_latency::total 66410.807287                       # average ReadExReq mshr miss latency
system.l3.ReadSharedReq_avg_mshr_miss_latency::cpu0.inst 64920.438792                       # average ReadSharedReq mshr miss latency
system.l3.ReadSharedReq_avg_mshr_miss_latency::cpu0.data 60134.396139                       # average ReadSharedReq mshr miss latency
system.l3.ReadSharedReq_avg_mshr_miss_latency::cpu1.inst 62997.073365                       # average ReadSharedReq mshr miss latency
system.l3.ReadSharedReq_avg_mshr_miss_latency::cpu1.data 58907.947173                       # average ReadSharedReq mshr miss latency
system.l3.ReadSharedReq_avg_mshr_miss_latency::cpu2.inst 63575.182830                       # average ReadSharedReq mshr miss latency
system.l3.ReadSharedReq_avg_mshr_miss_latency::cpu2.data 57645.497528                       # average ReadSharedReq mshr miss latency
system.l3.ReadSharedReq_avg_mshr_miss_latency::cpu3.inst 62297.038035                       # average ReadSharedReq mshr miss latency
system.l3.ReadSharedReq_avg_mshr_miss_latency::cpu3.data 60157.805045                       # average ReadSharedReq mshr miss latency
system.l3.ReadSharedReq_avg_mshr_miss_latency::total 59483.610657                       # average ReadSharedReq mshr miss latency
system.l3.demand_avg_mshr_miss_latency::cpu0.inst 64920.438792                       # average overall mshr miss latency
system.l3.demand_avg_mshr_miss_latency::cpu0.data 64593.144579                       # average overall mshr miss latency
system.l3.demand_avg_mshr_miss_latency::cpu1.inst 62997.073365                       # average overall mshr miss latency
system.l3.demand_avg_mshr_miss_latency::cpu1.data 63926.017611                       # average overall mshr miss latency
system.l3.demand_avg_mshr_miss_latency::cpu2.inst 63575.182830                       # average overall mshr miss latency
system.l3.demand_avg_mshr_miss_latency::cpu2.data 63392.810793                       # average overall mshr miss latency
system.l3.demand_avg_mshr_miss_latency::cpu3.inst 62297.038035                       # average overall mshr miss latency
system.l3.demand_avg_mshr_miss_latency::cpu3.data 64596.658256                       # average overall mshr miss latency
system.l3.demand_avg_mshr_miss_latency::total 64112.003557                       # average overall mshr miss latency
system.l3.overall_avg_mshr_miss_latency::cpu0.inst 64920.438792                       # average overall mshr miss latency
system.l3.overall_avg_mshr_miss_latency::cpu0.data 64593.144579                       # average overall mshr miss latency
system.l3.overall_avg_mshr_miss_latency::cpu1.inst 62997.073365                       # average overall mshr miss latency
system.l3.overall_avg_mshr_miss_latency::cpu1.data 63926.017611                       # average overall mshr miss latency
system.l3.overall_avg_mshr_miss_latency::cpu2.inst 63575.182830                       # average overall mshr miss latency
system.l3.overall_avg_mshr_miss_latency::cpu2.data 63392.810793                       # average overall mshr miss latency
system.l3.overall_avg_mshr_miss_latency::cpu3.inst 62297.038035                       # average overall mshr miss latency
system.l3.overall_avg_mshr_miss_latency::cpu3.data 64596.658256                       # average overall mshr miss latency
system.l3.overall_avg_mshr_miss_latency::total 64112.003557                       # average overall mshr miss latency
system.membus.snoop_filter.tot_requests        177316                       # Total number of requests made to the snoop filter.
system.membus.snoop_filter.hit_single_requests        60083                       # Number of requests hitting in the snoop filter with a single holder of the requested data.
system.membus.snoop_filter.hit_multi_requests            0                       # Number of requests hitting in the snoop filter with multiple (>1) holders of the requested data.
system.membus.snoop_filter.tot_snoops               0                       # Total number of snoops made to the snoop filter.
system.membus.snoop_filter.hit_single_snoops            0                       # Number of snoops hitting in the snoop filter with a single holder of the requested data.
system.membus.snoop_filter.hit_multi_snoops            0                       # Number of snoops hitting in the snoop filter with multiple (>1) holders of the requested data.
system.membus.pwrStateResidencyTicks::UNDEFINED   3454145064                       # Cumulative time (in ticks) in various power states
system.membus.trans_dist::ReadResp              38904                       # Transaction distribution
system.membus.trans_dist::WritebackDirty        56369                       # Transaction distribution
system.membus.trans_dist::CleanEvict             3714                       # Transaction distribution
system.membus.trans_dist::ReadExReq             78329                       # Transaction distribution
system.membus.trans_dist::ReadExResp            78329                       # Transaction distribution
system.membus.trans_dist::ReadSharedReq         38904                       # Transaction distribution
system.membus.pkt_count_system.l3.mem_side::system.mem_ctrls.port       294549                       # Packet count per connected master and slave (bytes)
system.membus.pkt_count_system.l3.mem_side::total       294549                       # Packet count per connected master and slave (bytes)
system.membus.pkt_count::total                 294549                       # Packet count per connected master and slave (bytes)
system.membus.pkt_size_system.l3.mem_side::system.mem_ctrls.port     11110528                       # Cumulative packet size per connected master and slave (bytes)
system.membus.pkt_size_system.l3.mem_side::total     11110528                       # Cumulative packet size per connected master and slave (bytes)
system.membus.pkt_size::total                11110528                       # Cumulative packet size per connected master and slave (bytes)
system.membus.snoops                                0                       # Total snoops (count)
system.membus.snoopTraffic                          0                       # Total snoop traffic (bytes)
system.membus.snoop_fanout::samples            117233                       # Request fanout histogram
system.membus.snoop_fanout::mean                    0                       # Request fanout histogram
system.membus.snoop_fanout::stdev                   0                       # Request fanout histogram
system.membus.snoop_fanout::underflows              0      0.00%      0.00% # Request fanout histogram
system.membus.snoop_fanout::0                  117233    100.00%    100.00% # Request fanout histogram
system.membus.snoop_fanout::1                       0      0.00%    100.00% # Request fanout histogram
system.membus.snoop_fanout::overflows               0      0.00%    100.00% # Request fanout histogram
system.membus.snoop_fanout::min_value               0                       # Request fanout histogram
system.membus.snoop_fanout::max_value               0                       # Request fanout histogram
system.membus.snoop_fanout::total              117233                       # Request fanout histogram
system.membus.reqLayer8.occupancy           439766177                       # Layer occupancy (ticks)
system.membus.reqLayer8.utilization              12.7                       # Layer utilization (%)
system.membus.respLayer1.occupancy          620089164                       # Layer occupancy (ticks)
system.membus.respLayer1.utilization             18.0                       # Layer utilization (%)
system.tol3bus.snoop_filter.tot_requests       217589                       # Total number of requests made to the snoop filter.
system.tol3bus.snoop_filter.hit_single_requests        99402                       # Number of requests hitting in the snoop filter with a single holder of the requested data.
system.tol3bus.snoop_filter.hit_multi_requests            0                       # Number of requests hitting in the snoop filter with multiple (>1) holders of the requested data.
system.tol3bus.snoop_filter.tot_snoops           2323                       # Total number of snoops made to the snoop filter.
system.tol3bus.snoop_filter.hit_single_snoops         2323                       # Number of snoops hitting in the snoop filter with a single holder of the requested data.
system.tol3bus.snoop_filter.hit_multi_snoops            0                       # Number of snoops hitting in the snoop filter with multiple (>1) holders of the requested data.
system.tol3bus.pwrStateResidencyTicks::UNDEFINED   3454145064                       # Cumulative time (in ticks) in various power states
system.tol3bus.trans_dist::ReadResp             39746                       # Transaction distribution
system.tol3bus.trans_dist::WritebackDirty       126487                       # Transaction distribution
system.tol3bus.trans_dist::CleanEvict           33289                       # Transaction distribution
system.tol3bus.trans_dist::ReadExReq            78441                       # Transaction distribution
system.tol3bus.trans_dist::ReadExResp           78441                       # Transaction distribution
system.tol3bus.trans_dist::ReadSharedReq        39746                       # Transaction distribution
system.tol3bus.pkt_count_system.cpu0.l2cache.mem_side::system.l3.cpu_side        83772                       # Packet count per connected master and slave (bytes)
system.tol3bus.pkt_count_system.cpu1.l2cache.mem_side::system.l3.cpu_side        84066                       # Packet count per connected master and slave (bytes)
system.tol3bus.pkt_count_system.cpu2.l2cache.mem_side::system.l3.cpu_side        84125                       # Packet count per connected master and slave (bytes)
system.tol3bus.pkt_count_system.cpu3.l2cache.mem_side::system.l3.cpu_side        83813                       # Packet count per connected master and slave (bytes)
system.tol3bus.pkt_count::total                335776                       # Packet count per connected master and slave (bytes)
system.tol3bus.pkt_size_system.cpu0.l2cache.mem_side::system.l3.cpu_side      3008192                       # Cumulative packet size per connected master and slave (bytes)
system.tol3bus.pkt_size_system.cpu1.l2cache.mem_side::system.l3.cpu_side      3015808                       # Cumulative packet size per connected master and slave (bytes)
system.tol3bus.pkt_size_system.cpu2.l2cache.mem_side::system.l3.cpu_side      3017920                       # Cumulative packet size per connected master and slave (bytes)
system.tol3bus.pkt_size_system.cpu3.l2cache.mem_side::system.l3.cpu_side      3009600                       # Cumulative packet size per connected master and slave (bytes)
system.tol3bus.pkt_size::total               12051520                       # Cumulative packet size per connected master and slave (bytes)
system.tol3bus.snoops                           60374                       # Total snoops (count)
system.tol3bus.snoopTraffic                   3607616                       # Total snoop traffic (bytes)
system.tol3bus.snoop_fanout::samples           178561                       # Request fanout histogram
system.tol3bus.snoop_fanout::mean            0.013010                       # Request fanout histogram
system.tol3bus.snoop_fanout::stdev           0.113315                       # Request fanout histogram
system.tol3bus.snoop_fanout::underflows             0      0.00%      0.00% # Request fanout histogram
system.tol3bus.snoop_fanout::0                 176238     98.70%     98.70% # Request fanout histogram
system.tol3bus.snoop_fanout::1                   2323      1.30%    100.00% # Request fanout histogram
system.tol3bus.snoop_fanout::2                      0      0.00%    100.00% # Request fanout histogram
system.tol3bus.snoop_fanout::3                      0      0.00%    100.00% # Request fanout histogram
system.tol3bus.snoop_fanout::4                      0      0.00%    100.00% # Request fanout histogram
system.tol3bus.snoop_fanout::overflows              0      0.00%    100.00% # Request fanout histogram
system.tol3bus.snoop_fanout::min_value              0                       # Request fanout histogram
system.tol3bus.snoop_fanout::max_value              1                       # Request fanout histogram
system.tol3bus.snoop_fanout::total             178561                       # Request fanout histogram
system.tol3bus.reqLayer0.occupancy          405392327                       # Layer occupancy (ticks)
system.tol3bus.reqLayer0.utilization             11.7                       # Layer utilization (%)
system.tol3bus.respLayer0.occupancy          93623877                       # Layer occupancy (ticks)
system.tol3bus.respLayer0.utilization             2.7                       # Layer utilization (%)
system.tol3bus.respLayer1.occupancy          93932907                       # Layer occupancy (ticks)
system.tol3bus.respLayer1.utilization             2.7                       # Layer utilization (%)
system.tol3bus.respLayer2.occupancy          94000711                       # Layer occupancy (ticks)
system.tol3bus.respLayer2.utilization             2.7                       # Layer utilization (%)
system.tol3bus.respLayer3.occupancy          93664959                       # Layer occupancy (ticks)
system.tol3bus.respLayer3.utilization             2.7                       # Layer utilization (%)

---------- End Simulation Statistics   ----------
