
---------- Begin Simulation Statistics ----------
sim_seconds                                  0.090025                       # Number of seconds simulated
sim_ticks                                 90025185699                       # Number of ticks simulated
final_tick                                90025185699                       # Number of ticks from beginning of simulation (restored from checkpoints and never reset)
sim_freq                                 1000000000000                       # Frequency of simulated ticks
host_inst_rate                                  34715                       # Simulator instruction rate (inst/s)
host_op_rate                                    46329                       # Simulator op (including micro ops) rate (op/s)
host_tick_rate                               78249287                       # Simulator tick rate (ticks/s)
host_mem_usage                               33836744                       # Number of bytes of host memory used
host_seconds                                  1150.49                       # Real time elapsed on the host
sim_insts                                    39939092                       # Number of instructions simulated
sim_ops                                      53301663                       # Number of ops (including micro ops) simulated
system.voltage_domain.voltage                       1                       # Voltage in Volts
system.clk_domain.clock                          1000                       # Clock period in ticks
system.mem_ctrls.pwrStateResidencyTicks::UNDEFINED  90025185699                       # Cumulative time (in ticks) in various power states
system.mem_ctrls.bytes_read::cpu0.inst          42432                       # Number of bytes read from this memory
system.mem_ctrls.bytes_read::cpu0.data       59164352                       # Number of bytes read from this memory
system.mem_ctrls.bytes_read::cpu1.inst          42752                       # Number of bytes read from this memory
system.mem_ctrls.bytes_read::cpu1.data       59107648                       # Number of bytes read from this memory
system.mem_ctrls.bytes_read::cpu2.inst          42368                       # Number of bytes read from this memory
system.mem_ctrls.bytes_read::cpu2.data       59056512                       # Number of bytes read from this memory
system.mem_ctrls.bytes_read::cpu3.inst          42752                       # Number of bytes read from this memory
system.mem_ctrls.bytes_read::cpu3.data       58967680                       # Number of bytes read from this memory
system.mem_ctrls.bytes_read::total          236466496                       # Number of bytes read from this memory
system.mem_ctrls.bytes_inst_read::cpu0.inst        42432                       # Number of instructions bytes read from this memory
system.mem_ctrls.bytes_inst_read::cpu1.inst        42752                       # Number of instructions bytes read from this memory
system.mem_ctrls.bytes_inst_read::cpu2.inst        42368                       # Number of instructions bytes read from this memory
system.mem_ctrls.bytes_inst_read::cpu3.inst        42752                       # Number of instructions bytes read from this memory
system.mem_ctrls.bytes_inst_read::total        170304                       # Number of instructions bytes read from this memory
system.mem_ctrls.bytes_written::writebacks    227886464                       # Number of bytes written to this memory
system.mem_ctrls.bytes_written::total       227886464                       # Number of bytes written to this memory
system.mem_ctrls.num_reads::cpu0.inst             663                       # Number of read requests responded to by this memory
system.mem_ctrls.num_reads::cpu0.data          924443                       # Number of read requests responded to by this memory
system.mem_ctrls.num_reads::cpu1.inst             668                       # Number of read requests responded to by this memory
system.mem_ctrls.num_reads::cpu1.data          923557                       # Number of read requests responded to by this memory
system.mem_ctrls.num_reads::cpu2.inst             662                       # Number of read requests responded to by this memory
system.mem_ctrls.num_reads::cpu2.data          922758                       # Number of read requests responded to by this memory
system.mem_ctrls.num_reads::cpu3.inst             668                       # Number of read requests responded to by this memory
system.mem_ctrls.num_reads::cpu3.data          921370                       # Number of read requests responded to by this memory
system.mem_ctrls.num_reads::total             3694789                       # Number of read requests responded to by this memory
system.mem_ctrls.num_writes::writebacks       3560726                       # Number of write requests responded to by this memory
system.mem_ctrls.num_writes::total            3560726                       # Number of write requests responded to by this memory
system.mem_ctrls.bw_read::cpu0.inst            471335                       # Total read bandwidth from this memory (bytes/s)
system.mem_ctrls.bw_read::cpu0.data         657197778                       # Total read bandwidth from this memory (bytes/s)
system.mem_ctrls.bw_read::cpu1.inst            474889                       # Total read bandwidth from this memory (bytes/s)
system.mem_ctrls.bw_read::cpu1.data         656567910                       # Total read bandwidth from this memory (bytes/s)
system.mem_ctrls.bw_read::cpu2.inst            470624                       # Total read bandwidth from this memory (bytes/s)
system.mem_ctrls.bw_read::cpu2.data         655999891                       # Total read bandwidth from this memory (bytes/s)
system.mem_ctrls.bw_read::cpu3.inst            474889                       # Total read bandwidth from this memory (bytes/s)
system.mem_ctrls.bw_read::cpu3.data         655013145                       # Total read bandwidth from this memory (bytes/s)
system.mem_ctrls.bw_read::total            2626670461                       # Total read bandwidth from this memory (bytes/s)
system.mem_ctrls.bw_inst_read::cpu0.inst       471335                       # Instruction read bandwidth from this memory (bytes/s)
system.mem_ctrls.bw_inst_read::cpu1.inst       474889                       # Instruction read bandwidth from this memory (bytes/s)
system.mem_ctrls.bw_inst_read::cpu2.inst       470624                       # Instruction read bandwidth from this memory (bytes/s)
system.mem_ctrls.bw_inst_read::cpu3.inst       474889                       # Instruction read bandwidth from this memory (bytes/s)
system.mem_ctrls.bw_inst_read::total          1891737                       # Instruction read bandwidth from this memory (bytes/s)
system.mem_ctrls.bw_write::writebacks      2531363443                       # Write bandwidth from this memory (bytes/s)
system.mem_ctrls.bw_write::total           2531363443                       # Write bandwidth from this memory (bytes/s)
system.mem_ctrls.bw_total::writebacks      2531363443                       # Total bandwidth to/from this memory (bytes/s)
system.mem_ctrls.bw_total::cpu0.inst           471335                       # Total bandwidth to/from this memory (bytes/s)
system.mem_ctrls.bw_total::cpu0.data        657197778                       # Total bandwidth to/from this memory (bytes/s)
system.mem_ctrls.bw_total::cpu1.inst           474889                       # Total bandwidth to/from this memory (bytes/s)
system.mem_ctrls.bw_total::cpu1.data        656567910                       # Total bandwidth to/from this memory (bytes/s)
system.mem_ctrls.bw_total::cpu2.inst           470624                       # Total bandwidth to/from this memory (bytes/s)
system.mem_ctrls.bw_total::cpu2.data        655999891                       # Total bandwidth to/from this memory (bytes/s)
system.mem_ctrls.bw_total::cpu3.inst           474889                       # Total bandwidth to/from this memory (bytes/s)
system.mem_ctrls.bw_total::cpu3.data        655013145                       # Total bandwidth to/from this memory (bytes/s)
system.mem_ctrls.bw_total::total           5158033903                       # Total bandwidth to/from this memory (bytes/s)
system.pwrStateResidencyTicks::UNDEFINED  90025185699                       # Cumulative time (in ticks) in various power states
system.cpu0.branchPred.lookups                 379472                       # Number of BP lookups
system.cpu0.branchPred.condPredicted           379472                       # Number of conditional branches predicted
system.cpu0.branchPred.condIncorrect             1314                       # Number of conditional branches incorrect
system.cpu0.branchPred.BTBLookups              378284                       # Number of BTB lookups
system.cpu0.branchPred.BTBHits                      0                       # Number of BTB hits
system.cpu0.branchPred.BTBCorrect                   0                       # Number of correct BTB predictions (this stat may not work properly.
system.cpu0.branchPred.BTBHitPct             0.000000                       # BTB Hit Percentage
system.cpu0.branchPred.usedRAS                    684                       # Number of times the RAS was used to get a target.
system.cpu0.branchPred.RASInCorrect               172                       # Number of incorrect RAS predictions.
system.cpu0.branchPred.indirectLookups         378284                       # Number of indirect predictor lookups.
system.cpu0.branchPred.indirectHits            371325                       # Number of indirect target hits.
system.cpu0.branchPred.indirectMisses            6959                       # Number of indirect misses.
system.cpu0.branchPredindirectMispredicted          990                       # Number of mispredicted indirect branches.
system.cpu_voltage_domain.voltage                   1                       # Voltage in Volts
system.cpu_clk_domain.clock                       333                       # Clock period in ticks
system.cpu0.dtb.walker.pwrStateResidencyTicks::UNDEFINED  90025185699                       # Cumulative time (in ticks) in various power states
system.cpu0.dtb.rdAccesses                    1115395                       # TLB accesses on read requests
system.cpu0.dtb.wrAccesses                    7397677                       # TLB accesses on write requests
system.cpu0.dtb.rdMisses                          168                       # TLB misses on read requests
system.cpu0.dtb.wrMisses                        14486                       # TLB misses on write requests
system.cpu0.apic_clk_domain.clock                5328                       # Clock period in ticks
system.cpu0.interrupts.pwrStateResidencyTicks::UNDEFINED  90025185699                       # Cumulative time (in ticks) in various power states
system.cpu0.itb.walker.pwrStateResidencyTicks::UNDEFINED  90025185699                       # Cumulative time (in ticks) in various power states
system.cpu0.itb.rdAccesses                          0                       # TLB accesses on read requests
system.cpu0.itb.wrAccesses                    1484667                       # TLB accesses on write requests
system.cpu0.itb.rdMisses                            0                       # TLB misses on read requests
system.cpu0.itb.wrMisses                          213                       # TLB misses on write requests
system.cpu0.workload.numSyscalls                   19                       # Number of system calls
system.cpu0.pwrStateResidencyTicks::ON    90025185699                       # Cumulative time (in ticks) in various power states
system.cpu0.numCycles                       270345904                       # number of cpu cycles simulated
system.cpu0.numWorkItemsStarted                     0                       # number of work items this cpu started
system.cpu0.numWorkItemsCompleted                   0                       # number of work items this cpu completed
system.cpu0.fetch.icacheStallCycles           1504092                       # Number of cycles fetch is stalled on an Icache miss
system.cpu0.fetch.Insts                      10023593                       # Number of instructions fetch has processed
system.cpu0.fetch.Branches                     379472                       # Number of branches that fetch encountered
system.cpu0.fetch.predictedBranches            372009                       # Number of branches that fetch has predicted taken
system.cpu0.fetch.Cycles                    268775427                       # Number of cycles fetch has run and was not squashing or blocked
system.cpu0.fetch.SquashCycles                   2892                       # Number of cycles fetch has spent squashing
system.cpu0.fetch.MiscStallCycles                 162                       # Number of cycles fetch has spent waiting on interrupts, or bad addresses, or out of MSHRs
system.cpu0.fetch.PendingTrapStallCycles          937                       # Number of stall cycles due to pending traps
system.cpu0.fetch.PendingQuiesceStallCycles            7                       # Number of stall cycles due to pending quiesce instructions
system.cpu0.fetch.IcacheWaitRetryStallCycles          220                       # Number of stall cycles due to full MSHR
system.cpu0.fetch.CacheLines                  1484507                       # Number of cache lines fetched
system.cpu0.fetch.IcacheSquashes                  665                       # Number of outstanding Icache misses that were squashed
system.cpu0.fetch.rateDist::samples         270282291                       # Number of instructions fetched each cycle (Total)
system.cpu0.fetch.rateDist::mean             0.049545                       # Number of instructions fetched each cycle (Total)
system.cpu0.fetch.rateDist::stdev            0.565551                       # Number of instructions fetched each cycle (Total)
system.cpu0.fetch.rateDist::underflows              0      0.00%      0.00% # Number of instructions fetched each cycle (Total)
system.cpu0.fetch.rateDist::0               267681926     99.04%     99.04% # Number of instructions fetched each cycle (Total)
system.cpu0.fetch.rateDist::1                  370344      0.14%     99.17% # Number of instructions fetched each cycle (Total)
system.cpu0.fetch.rateDist::2                     571      0.00%     99.18% # Number of instructions fetched each cycle (Total)
system.cpu0.fetch.rateDist::3                  370557      0.14%     99.31% # Number of instructions fetched each cycle (Total)
system.cpu0.fetch.rateDist::4                  739884      0.27%     99.59% # Number of instructions fetched each cycle (Total)
system.cpu0.fetch.rateDist::5                     455      0.00%     99.59% # Number of instructions fetched each cycle (Total)
system.cpu0.fetch.rateDist::6                     835      0.00%     99.59% # Number of instructions fetched each cycle (Total)
system.cpu0.fetch.rateDist::7                     570      0.00%     99.59% # Number of instructions fetched each cycle (Total)
system.cpu0.fetch.rateDist::8                 1117149      0.41%    100.00% # Number of instructions fetched each cycle (Total)
system.cpu0.fetch.rateDist::overflows               0      0.00%    100.00% # Number of instructions fetched each cycle (Total)
system.cpu0.fetch.rateDist::min_value               0                       # Number of instructions fetched each cycle (Total)
system.cpu0.fetch.rateDist::max_value               8                       # Number of instructions fetched each cycle (Total)
system.cpu0.fetch.rateDist::total           270282291                       # Number of instructions fetched each cycle (Total)
system.cpu0.fetch.branchRate                 0.001404                       # Number of branch fetches per cycle
system.cpu0.fetch.rate                       0.037077                       # Number of inst fetches per cycle
system.cpu0.decode.IdleCycles                  578433                       # Number of cycles decode is idle
system.cpu0.decode.BlockedCycles            268027505                       # Number of cycles decode is blocked
system.cpu0.decode.RunCycles                    10404                       # Number of cycles decode is running
system.cpu0.decode.UnblockCycles              1664503                       # Number of cycles decode is unblocking
system.cpu0.decode.SquashCycles                  1446                       # Number of cycles decode is squashing
system.cpu0.decode.DecodedInsts              13385612                       # Number of instructions handled by decode
system.cpu0.rename.SquashCycles                  1446                       # Number of cycles rename is squashing
system.cpu0.rename.IdleCycles                 1133596                       # Number of cycles rename is idle
system.cpu0.rename.BlockCycles              102245794                       # Number of cycles rename is blocking
system.cpu0.rename.serializeStallCycles          1631                       # count of cycles rename stalled for serializing inst
system.cpu0.rename.RunCycles                  1119646                       # Number of cycles rename is running
system.cpu0.rename.UnblockCycles            165780178                       # Number of cycles rename is unblocking
system.cpu0.rename.RenamedInsts              13381563                       # Number of instructions processed by rename
system.cpu0.rename.ROBFullEvents                   29                       # Number of times rename has blocked due to ROB full
system.cpu0.rename.IQFullEvents                   216                       # Number of times rename has blocked due to IQ full
system.cpu0.rename.SQFullEvents             165595004                       # Number of times rename has blocked due to SQ full
system.cpu0.rename.RenamedOperands            7842911                       # Number of destination operands rename has renamed
system.cpu0.rename.RenameLookups             39737273                       # Number of register rename lookups that rename has made
system.cpu0.rename.int_rename_lookups        20439468                       # Number of integer rename lookups
system.cpu0.rename.fp_rename_lookups          7025609                       # Number of floating rename lookups
system.cpu0.rename.CommittedMaps              7803998                       # Number of HB maps that are committed
system.cpu0.rename.UndoneMaps                   38913                       # Number of HB maps that are undone due to squashing
system.cpu0.rename.serializingInsts                48                       # count of serializing insts renamed
system.cpu0.rename.tempSerializingInsts            42                       # count of temporary serializing insts renamed
system.cpu0.rename.skidInsts                 11277811                       # count of insts added to the skid buffer
system.cpu0.memDep0.insertedLoads             1116703                       # Number of loads inserted to the mem dependence unit.
system.cpu0.memDep0.insertedStores            7398960                       # Number of stores inserted to the mem dependence unit.
system.cpu0.memDep0.conflictingLoads              236                       # Number of conflicting loads.
system.cpu0.memDep0.conflictingStores             240                       # Number of conflicting stores.
system.cpu0.iq.iqInstsAdded                  13373611                       # Number of instructions added to the IQ (excludes non-spec)
system.cpu0.iq.iqNonSpecInstsAdded                195                       # Number of non-speculative instructions added to the IQ
system.cpu0.iq.iqInstsIssued                 13364964                       # Number of instructions issued
system.cpu0.iq.iqSquashedInstsIssued              311                       # Number of squashed instructions issued
system.cpu0.iq.iqSquashedInstsExamined          28084                       # Number of squashed instructions iterated over during squash; mainly for profiling
system.cpu0.iq.iqSquashedOperandsExamined        39266                       # Number of squashed operands that are examined and possibly removed from graph
system.cpu0.iq.iqSquashedNonSpecRemoved           152                       # Number of squashed non-spec instructions that were removed
system.cpu0.iq.issued_per_cycle::samples    270282291                       # Number of insts issued each cycle
system.cpu0.iq.issued_per_cycle::mean        0.049448                       # Number of insts issued each cycle
system.cpu0.iq.issued_per_cycle::stdev       0.336922                       # Number of insts issued each cycle
system.cpu0.iq.issued_per_cycle::underflows            0      0.00%      0.00% # Number of insts issued each cycle
system.cpu0.iq.issued_per_cycle::0          261580352     96.78%     96.78% # Number of insts issued each cycle
system.cpu0.iq.issued_per_cycle::1            6472097      2.39%     99.17% # Number of insts issued each cycle
system.cpu0.iq.issued_per_cycle::2            1111250      0.41%     99.59% # Number of insts issued each cycle
system.cpu0.iq.issued_per_cycle::3             371370      0.14%     99.72% # Number of insts issued each cycle
system.cpu0.iq.issued_per_cycle::4             186627      0.07%     99.79% # Number of insts issued each cycle
system.cpu0.iq.issued_per_cycle::5             556798      0.21%    100.00% # Number of insts issued each cycle
system.cpu0.iq.issued_per_cycle::6               1628      0.00%    100.00% # Number of insts issued each cycle
system.cpu0.iq.issued_per_cycle::7               1361      0.00%    100.00% # Number of insts issued each cycle
system.cpu0.iq.issued_per_cycle::8                808      0.00%    100.00% # Number of insts issued each cycle
system.cpu0.iq.issued_per_cycle::overflows            0      0.00%    100.00% # Number of insts issued each cycle
system.cpu0.iq.issued_per_cycle::min_value            0                       # Number of insts issued each cycle
system.cpu0.iq.issued_per_cycle::max_value            8                       # Number of insts issued each cycle
system.cpu0.iq.issued_per_cycle::total      270282291                       # Number of insts issued each cycle
system.cpu0.iq.fu_full::No_OpClass                  0      0.00%      0.00% # attempts to use FU when none available
system.cpu0.iq.fu_full::IntAlu                    808     90.38%     90.38% # attempts to use FU when none available
system.cpu0.iq.fu_full::IntMult                     0      0.00%     90.38% # attempts to use FU when none available
system.cpu0.iq.fu_full::IntDiv                      0      0.00%     90.38% # attempts to use FU when none available
system.cpu0.iq.fu_full::FloatAdd                   12      1.34%     91.72% # attempts to use FU when none available
system.cpu0.iq.fu_full::FloatCmp                    0      0.00%     91.72% # attempts to use FU when none available
system.cpu0.iq.fu_full::FloatCvt                    0      0.00%     91.72% # attempts to use FU when none available
system.cpu0.iq.fu_full::FloatMult                   0      0.00%     91.72% # attempts to use FU when none available
system.cpu0.iq.fu_full::FloatMultAcc                0      0.00%     91.72% # attempts to use FU when none available
system.cpu0.iq.fu_full::FloatDiv                    0      0.00%     91.72% # attempts to use FU when none available
system.cpu0.iq.fu_full::FloatMisc                   0      0.00%     91.72% # attempts to use FU when none available
system.cpu0.iq.fu_full::FloatSqrt                   0      0.00%     91.72% # attempts to use FU when none available
system.cpu0.iq.fu_full::SimdAdd                     0      0.00%     91.72% # attempts to use FU when none available
system.cpu0.iq.fu_full::SimdAddAcc                  0      0.00%     91.72% # attempts to use FU when none available
system.cpu0.iq.fu_full::SimdAlu                     0      0.00%     91.72% # attempts to use FU when none available
system.cpu0.iq.fu_full::SimdCmp                     0      0.00%     91.72% # attempts to use FU when none available
system.cpu0.iq.fu_full::SimdCvt                     0      0.00%     91.72% # attempts to use FU when none available
system.cpu0.iq.fu_full::SimdMisc                    0      0.00%     91.72% # attempts to use FU when none available
system.cpu0.iq.fu_full::SimdMult                    0      0.00%     91.72% # attempts to use FU when none available
system.cpu0.iq.fu_full::SimdMultAcc                 0      0.00%     91.72% # attempts to use FU when none available
system.cpu0.iq.fu_full::SimdShift                   0      0.00%     91.72% # attempts to use FU when none available
system.cpu0.iq.fu_full::SimdShiftAcc                0      0.00%     91.72% # attempts to use FU when none available
system.cpu0.iq.fu_full::SimdSqrt                    0      0.00%     91.72% # attempts to use FU when none available
system.cpu0.iq.fu_full::SimdFloatAdd                0      0.00%     91.72% # attempts to use FU when none available
system.cpu0.iq.fu_full::SimdFloatAlu                0      0.00%     91.72% # attempts to use FU when none available
system.cpu0.iq.fu_full::SimdFloatCmp                0      0.00%     91.72% # attempts to use FU when none available
system.cpu0.iq.fu_full::SimdFloatCvt                0      0.00%     91.72% # attempts to use FU when none available
system.cpu0.iq.fu_full::SimdFloatDiv                0      0.00%     91.72% # attempts to use FU when none available
system.cpu0.iq.fu_full::SimdFloatMisc               0      0.00%     91.72% # attempts to use FU when none available
system.cpu0.iq.fu_full::SimdFloatMult               0      0.00%     91.72% # attempts to use FU when none available
system.cpu0.iq.fu_full::SimdFloatMultAcc            0      0.00%     91.72% # attempts to use FU when none available
system.cpu0.iq.fu_full::SimdFloatSqrt               0      0.00%     91.72% # attempts to use FU when none available
system.cpu0.iq.fu_full::MemRead                    32      3.58%     95.30% # attempts to use FU when none available
system.cpu0.iq.fu_full::MemWrite                   24      2.68%     97.99% # attempts to use FU when none available
system.cpu0.iq.fu_full::FloatMemRead                3      0.34%     98.32% # attempts to use FU when none available
system.cpu0.iq.fu_full::FloatMemWrite              15      1.68%    100.00% # attempts to use FU when none available
system.cpu0.iq.fu_full::IprAccess                   0      0.00%    100.00% # attempts to use FU when none available
system.cpu0.iq.fu_full::InstPrefetch                0      0.00%    100.00% # attempts to use FU when none available
system.cpu0.iq.FU_type_0::No_OpClass              719      0.01%      0.01% # Type of FU issued
system.cpu0.iq.FU_type_0::IntAlu              4849704     36.29%     36.29% # Type of FU issued
system.cpu0.iq.FU_type_0::IntMult                  32      0.00%     36.29% # Type of FU issued
system.cpu0.iq.FU_type_0::IntDiv                   88      0.00%     36.29% # Type of FU issued
system.cpu0.iq.FU_type_0::FloatAdd                585      0.00%     36.30% # Type of FU issued
system.cpu0.iq.FU_type_0::FloatCmp                  0      0.00%     36.30% # Type of FU issued
system.cpu0.iq.FU_type_0::FloatCvt                  0      0.00%     36.30% # Type of FU issued
system.cpu0.iq.FU_type_0::FloatMult                 0      0.00%     36.30% # Type of FU issued
system.cpu0.iq.FU_type_0::FloatMultAcc              0      0.00%     36.30% # Type of FU issued
system.cpu0.iq.FU_type_0::FloatDiv                  0      0.00%     36.30% # Type of FU issued
system.cpu0.iq.FU_type_0::FloatMisc                 0      0.00%     36.30% # Type of FU issued
system.cpu0.iq.FU_type_0::FloatSqrt                 0      0.00%     36.30% # Type of FU issued
system.cpu0.iq.FU_type_0::SimdAdd                   0      0.00%     36.30% # Type of FU issued
system.cpu0.iq.FU_type_0::SimdAddAcc                0      0.00%     36.30% # Type of FU issued
system.cpu0.iq.FU_type_0::SimdAlu                   0      0.00%     36.30% # Type of FU issued
system.cpu0.iq.FU_type_0::SimdCmp                   0      0.00%     36.30% # Type of FU issued
system.cpu0.iq.FU_type_0::SimdCvt                   0      0.00%     36.30% # Type of FU issued
system.cpu0.iq.FU_type_0::SimdMisc                  0      0.00%     36.30% # Type of FU issued
system.cpu0.iq.FU_type_0::SimdMult                  0      0.00%     36.30% # Type of FU issued
system.cpu0.iq.FU_type_0::SimdMultAcc               0      0.00%     36.30% # Type of FU issued
system.cpu0.iq.FU_type_0::SimdShift                 0      0.00%     36.30% # Type of FU issued
system.cpu0.iq.FU_type_0::SimdShiftAcc              0      0.00%     36.30% # Type of FU issued
system.cpu0.iq.FU_type_0::SimdSqrt                  0      0.00%     36.30% # Type of FU issued
system.cpu0.iq.FU_type_0::SimdFloatAdd              0      0.00%     36.30% # Type of FU issued
system.cpu0.iq.FU_type_0::SimdFloatAlu              0      0.00%     36.30% # Type of FU issued
system.cpu0.iq.FU_type_0::SimdFloatCmp              0      0.00%     36.30% # Type of FU issued
system.cpu0.iq.FU_type_0::SimdFloatCvt              0      0.00%     36.30% # Type of FU issued
system.cpu0.iq.FU_type_0::SimdFloatDiv              0      0.00%     36.30% # Type of FU issued
system.cpu0.iq.FU_type_0::SimdFloatMisc             0      0.00%     36.30% # Type of FU issued
system.cpu0.iq.FU_type_0::SimdFloatMult             0      0.00%     36.30% # Type of FU issued
system.cpu0.iq.FU_type_0::SimdFloatMultAcc            0      0.00%     36.30% # Type of FU issued
system.cpu0.iq.FU_type_0::SimdFloatSqrt             0      0.00%     36.30% # Type of FU issued
system.cpu0.iq.FU_type_0::MemRead                6653      0.05%     36.35% # Type of FU issued
system.cpu0.iq.FU_type_0::MemWrite             373787      2.80%     39.14% # Type of FU issued
system.cpu0.iq.FU_type_0::FloatMemRead        1109174      8.30%     47.44% # Type of FU issued
system.cpu0.iq.FU_type_0::FloatMemWrite       7024222     52.56%    100.00% # Type of FU issued
system.cpu0.iq.FU_type_0::IprAccess                 0      0.00%    100.00% # Type of FU issued
system.cpu0.iq.FU_type_0::InstPrefetch              0      0.00%    100.00% # Type of FU issued
system.cpu0.iq.FU_type_0::total              13364964                       # Type of FU issued
system.cpu0.iq.rate                          0.049437                       # Inst issue rate
system.cpu0.iq.fu_busy_cnt                        894                       # FU busy when requested
system.cpu0.iq.fu_busy_rate                  0.000067                       # FU busy rate (busy events/executed inst)
system.cpu0.iq.int_inst_queue_reads         280745280                       # Number of integer instruction queue reads
system.cpu0.iq.int_inst_queue_writes          5267721                       # Number of integer instruction queue writes
system.cpu0.iq.int_inst_queue_wakeup_accesses      5226981                       # Number of integer instruction queue wakeup accesses
system.cpu0.iq.fp_inst_queue_reads           16268144                       # Number of floating instruction queue reads
system.cpu0.iq.fp_inst_queue_writes           8134191                       # Number of floating instruction queue writes
system.cpu0.iq.fp_inst_queue_wakeup_accesses      8134043                       # Number of floating instruction queue wakeup accesses
system.cpu0.iq.vec_inst_queue_reads                 0                       # Number of vector instruction queue reads
system.cpu0.iq.vec_inst_queue_writes                0                       # Number of vector instruction queue writes
system.cpu0.iq.vec_inst_queue_wakeup_accesses            0                       # Number of vector instruction queue wakeup accesses
system.cpu0.iq.int_alu_accesses               5231058                       # Number of integer alu accesses
system.cpu0.iq.fp_alu_accesses                8134081                       # Number of floating point alu accesses
system.cpu0.iq.vec_alu_accesses                     0                       # Number of vector alu accesses
system.cpu0.iew.lsq.thread0.forwLoads             604                       # Number of loads that had data forwarded from stores
system.cpu0.iew.lsq.thread0.invAddrLoads            0                       # Number of loads ignored due to an invalid address
system.cpu0.iew.lsq.thread0.squashedLoads         3362                       # Number of loads squashed
system.cpu0.iew.lsq.thread0.ignoredResponses           10                       # Number of memory responses ignored because the instruction is squashed
system.cpu0.iew.lsq.thread0.memOrderViolation           22                       # Number of memory ordering violations
system.cpu0.iew.lsq.thread0.squashedStores         2268                       # Number of stores squashed
system.cpu0.iew.lsq.thread0.invAddrSwpfs            0                       # Number of software prefetches ignored due to an invalid address
system.cpu0.iew.lsq.thread0.blockedLoads            0                       # Number of blocked loads due to partial load-store forwarding
system.cpu0.iew.lsq.thread0.rescheduledLoads            1                       # Number of loads that were rescheduled
system.cpu0.iew.lsq.thread0.cacheBlocked           49                       # Number of times an access to memory failed due to the cache being blocked
system.cpu0.iew.iewIdleCycles                       0                       # Number of cycles IEW is idle
system.cpu0.iew.iewSquashCycles                  1446                       # Number of cycles IEW is squashing
system.cpu0.iew.iewBlockCycles                   4036                       # Number of cycles IEW is blocking
system.cpu0.iew.iewUnblockCycles            102241213                       # Number of cycles IEW is unblocking
system.cpu0.iew.iewDispatchedInsts           13373806                       # Number of instructions dispatched to IQ
system.cpu0.iew.iewDispSquashedInsts               52                       # Number of squashed instructions skipped by dispatch
system.cpu0.iew.iewDispLoadInsts              1116703                       # Number of dispatched load instructions
system.cpu0.iew.iewDispStoreInsts             7398960                       # Number of dispatched store instructions
system.cpu0.iew.iewDispNonSpecInsts                90                       # Number of dispatched non-speculative instructions
system.cpu0.iew.iewIQFullEvents                    14                       # Number of times the IQ has become full, causing a stall
system.cpu0.iew.iewLSQFullEvents            102056348                       # Number of times the LSQ has become full, causing a stall
system.cpu0.iew.memOrderViolationEvents            22                       # Number of memory order violations
system.cpu0.iew.predictedTakenIncorrect           263                       # Number of branches that were predicted taken incorrectly
system.cpu0.iew.predictedNotTakenIncorrect         1590                       # Number of branches that were predicted not taken incorrectly
system.cpu0.iew.branchMispredicts                1853                       # Number of branch mispredicts detected at execute
system.cpu0.iew.iewExecutedInsts             13362278                       # Number of executed instructions
system.cpu0.iew.iewExecLoadInsts              1115360                       # Number of load instructions executed
system.cpu0.iew.iewExecSquashedInsts             2686                       # Number of squashed instructions skipped in execute
system.cpu0.iew.exec_swp                            0                       # number of swp insts executed
system.cpu0.iew.exec_nop                            0                       # number of nop insts executed
system.cpu0.iew.exec_refs                     8513034                       # number of memory reference insts executed
system.cpu0.iew.exec_branches                  375497                       # Number of branches executed
system.cpu0.iew.exec_stores                   7397674                       # Number of stores executed
system.cpu0.iew.exec_rate                    0.049427                       # Inst execution rate
system.cpu0.iew.wb_sent                      13361646                       # cumulative count of insts sent to commit
system.cpu0.iew.wb_count                     13361024                       # cumulative count of insts written-back
system.cpu0.iew.wb_producers                  4287218                       # num instructions producing a value
system.cpu0.iew.wb_consumers                  5046494                       # num instructions consuming a value
system.cpu0.iew.wb_rate                      0.049422                       # insts written-back per cycle
system.cpu0.iew.wb_fanout                    0.849544                       # average fanout of values written-back
system.cpu0.commit.commitSquashedInsts          28085                       # The number of squashed insts skipped by commit
system.cpu0.commit.commitNonSpecStalls             43                       # The number of times commit has been forced to stall to communicate backwards
system.cpu0.commit.branchMispredicts             1430                       # The number of times a branch was mispredicted
system.cpu0.commit.committed_per_cycle::samples    270277569                       # Number of insts commited each cycle
system.cpu0.commit.committed_per_cycle::mean     0.049378                       # Number of insts commited each cycle
system.cpu0.commit.committed_per_cycle::stdev     0.332347                       # Number of insts commited each cycle
system.cpu0.commit.committed_per_cycle::underflows            0      0.00%      0.00% # Number of insts commited each cycle
system.cpu0.commit.committed_per_cycle::0    261579835     96.78%     96.78% # Number of insts commited each cycle
system.cpu0.commit.committed_per_cycle::1      6102378      2.26%     99.04% # Number of insts commited each cycle
system.cpu0.commit.committed_per_cycle::2      1849791      0.68%     99.72% # Number of insts commited each cycle
system.cpu0.commit.committed_per_cycle::3         2256      0.00%     99.72% # Number of insts commited each cycle
system.cpu0.commit.committed_per_cycle::4       185845      0.07%     99.79% # Number of insts commited each cycle
system.cpu0.commit.committed_per_cycle::5       555022      0.21%    100.00% # Number of insts commited each cycle
system.cpu0.commit.committed_per_cycle::6          364      0.00%    100.00% # Number of insts commited each cycle
system.cpu0.commit.committed_per_cycle::7          306      0.00%    100.00% # Number of insts commited each cycle
system.cpu0.commit.committed_per_cycle::8         1772      0.00%    100.00% # Number of insts commited each cycle
system.cpu0.commit.committed_per_cycle::overflows            0      0.00%    100.00% # Number of insts commited each cycle
system.cpu0.commit.committed_per_cycle::min_value            0                       # Number of insts commited each cycle
system.cpu0.commit.committed_per_cycle::max_value            8                       # Number of insts commited each cycle
system.cpu0.commit.committed_per_cycle::total    270277569                       # Number of insts commited each cycle
system.cpu0.commit.committedInsts            10000001                       # Number of instructions committed
system.cpu0.commit.committedOps              13345720                       # Number of ops (including micro ops) committed
system.cpu0.commit.swp_count                        0                       # Number of s/w prefetches committed
system.cpu0.commit.refs                       8510031                       # Number of memory references committed
system.cpu0.commit.loads                      1113341                       # Number of loads committed
system.cpu0.commit.membars                         16                       # Number of memory barriers committed
system.cpu0.commit.branches                    374245                       # Number of branches committed
system.cpu0.commit.vec_insts                        0                       # Number of committed Vector instructions.
system.cpu0.commit.fp_insts                   8133995                       # Number of committed floating point instructions.
system.cpu0.commit.int_insts                 13345042                       # Number of committed integer instructions.
system.cpu0.commit.function_calls                 328                       # Number of function calls committed.
system.cpu0.commit.op_class_0::No_OpClass          169      0.00%      0.00% # Class of committed instruction
system.cpu0.commit.op_class_0::IntAlu         4834876     36.23%     36.23% # Class of committed instruction
system.cpu0.commit.op_class_0::IntMult             25      0.00%     36.23% # Class of committed instruction
system.cpu0.commit.op_class_0::IntDiv              70      0.00%     36.23% # Class of committed instruction
system.cpu0.commit.op_class_0::FloatAdd           549      0.00%     36.23% # Class of committed instruction
system.cpu0.commit.op_class_0::FloatCmp             0      0.00%     36.23% # Class of committed instruction
system.cpu0.commit.op_class_0::FloatCvt             0      0.00%     36.23% # Class of committed instruction
system.cpu0.commit.op_class_0::FloatMult            0      0.00%     36.23% # Class of committed instruction
system.cpu0.commit.op_class_0::FloatMultAcc            0      0.00%     36.23% # Class of committed instruction
system.cpu0.commit.op_class_0::FloatDiv             0      0.00%     36.23% # Class of committed instruction
system.cpu0.commit.op_class_0::FloatMisc            0      0.00%     36.23% # Class of committed instruction
system.cpu0.commit.op_class_0::FloatSqrt            0      0.00%     36.23% # Class of committed instruction
system.cpu0.commit.op_class_0::SimdAdd              0      0.00%     36.23% # Class of committed instruction
system.cpu0.commit.op_class_0::SimdAddAcc            0      0.00%     36.23% # Class of committed instruction
system.cpu0.commit.op_class_0::SimdAlu              0      0.00%     36.23% # Class of committed instruction
system.cpu0.commit.op_class_0::SimdCmp              0      0.00%     36.23% # Class of committed instruction
system.cpu0.commit.op_class_0::SimdCvt              0      0.00%     36.23% # Class of committed instruction
system.cpu0.commit.op_class_0::SimdMisc             0      0.00%     36.23% # Class of committed instruction
system.cpu0.commit.op_class_0::SimdMult             0      0.00%     36.23% # Class of committed instruction
system.cpu0.commit.op_class_0::SimdMultAcc            0      0.00%     36.23% # Class of committed instruction
system.cpu0.commit.op_class_0::SimdShift            0      0.00%     36.23% # Class of committed instruction
system.cpu0.commit.op_class_0::SimdShiftAcc            0      0.00%     36.23% # Class of committed instruction
system.cpu0.commit.op_class_0::SimdSqrt             0      0.00%     36.23% # Class of committed instruction
system.cpu0.commit.op_class_0::SimdFloatAdd            0      0.00%     36.23% # Class of committed instruction
system.cpu0.commit.op_class_0::SimdFloatAlu            0      0.00%     36.23% # Class of committed instruction
system.cpu0.commit.op_class_0::SimdFloatCmp            0      0.00%     36.23% # Class of committed instruction
system.cpu0.commit.op_class_0::SimdFloatCvt            0      0.00%     36.23% # Class of committed instruction
system.cpu0.commit.op_class_0::SimdFloatDiv            0      0.00%     36.23% # Class of committed instruction
system.cpu0.commit.op_class_0::SimdFloatMisc            0      0.00%     36.23% # Class of committed instruction
system.cpu0.commit.op_class_0::SimdFloatMult            0      0.00%     36.23% # Class of committed instruction
system.cpu0.commit.op_class_0::SimdFloatMultAcc            0      0.00%     36.23% # Class of committed instruction
system.cpu0.commit.op_class_0::SimdFloatSqrt            0      0.00%     36.23% # Class of committed instruction
system.cpu0.commit.op_class_0::MemRead           4181      0.03%     36.27% # Class of committed instruction
system.cpu0.commit.op_class_0::MemWrite        372470      2.79%     39.06% # Class of committed instruction
system.cpu0.commit.op_class_0::FloatMemRead      1109160      8.31%     47.37% # Class of committed instruction
system.cpu0.commit.op_class_0::FloatMemWrite      7024220     52.63%    100.00% # Class of committed instruction
system.cpu0.commit.op_class_0::IprAccess            0      0.00%    100.00% # Class of committed instruction
system.cpu0.commit.op_class_0::InstPrefetch            0      0.00%    100.00% # Class of committed instruction
system.cpu0.commit.op_class_0::total         13345720                       # Class of committed instruction
system.cpu0.commit.bw_lim_events                 1772                       # number cycles where commit BW limit reached
system.cpu0.rob.rob_reads                   283649602                       # The number of ROB reads
system.cpu0.rob.rob_writes                   26752428                       # The number of ROB writes
system.cpu0.timesIdled                            418                       # Number of times that the entire CPU went into an idle state and unscheduled itself
system.cpu0.idleCycles                          63613                       # Total number of cycles that the CPU has spent unscheduled due to idling
system.cpu0.committedInsts                   10000001                       # Number of Instructions Simulated
system.cpu0.committedOps                     13345720                       # Number of Ops (including micro ops) Simulated
system.cpu0.cpi                             27.034588                       # CPI: Cycles Per Instruction
system.cpu0.cpi_total                       27.034588                       # CPI: Total CPI of All Threads
system.cpu0.ipc                              0.036990                       # IPC: Instructions Per Cycle
system.cpu0.ipc_total                        0.036990                       # IPC: Total IPC of All Threads
system.cpu0.int_regfile_reads                20405934                       # number of integer regfile reads
system.cpu0.int_regfile_writes                4478213                       # number of integer regfile writes
system.cpu0.fp_regfile_reads                  7025539                       # number of floating regfile reads
system.cpu0.fp_regfile_writes                 1109704                       # number of floating regfile writes
system.cpu0.cc_regfile_reads                  1874812                       # number of cc regfile reads
system.cpu0.cc_regfile_writes                 2232752                       # number of cc regfile writes
system.cpu0.misc_regfile_reads               10374487                       # number of misc regfile reads
system.cpu0.dcache.tags.pwrStateResidencyTicks::UNDEFINED  90025185699                       # Cumulative time (in ticks) in various power states
system.cpu0.dcache.tags.replacements           923933                       # number of replacements
system.cpu0.dcache.tags.tagsinuse          511.817230                       # Cycle average of tags in use
system.cpu0.dcache.tags.total_refs            7586715                       # Total number of references to valid blocks.
system.cpu0.dcache.tags.sampled_refs           924445                       # Sample count of references to valid blocks.
system.cpu0.dcache.tags.avg_refs             8.206778                       # Average number of references to valid blocks.
system.cpu0.dcache.tags.warmup_cycle           150183                       # Cycle when the warmup percentage was hit.
system.cpu0.dcache.tags.occ_blocks::cpu0.data   511.817230                       # Average occupied blocks per requestor
system.cpu0.dcache.tags.occ_percent::cpu0.data     0.999643                       # Average percentage of cache occupancy
system.cpu0.dcache.tags.occ_percent::total     0.999643                       # Average percentage of cache occupancy
system.cpu0.dcache.tags.occ_task_id_blocks::1024          512                       # Occupied blocks per task id
system.cpu0.dcache.tags.age_task_id_blocks_1024::0          103                       # Occupied blocks per task id
system.cpu0.dcache.tags.age_task_id_blocks_1024::1          408                       # Occupied blocks per task id
system.cpu0.dcache.tags.age_task_id_blocks_1024::4            1                       # Occupied blocks per task id
system.cpu0.dcache.tags.occ_task_id_percent::1024            1                       # Percentage of cache occupancy per task id
system.cpu0.dcache.tags.tag_accesses         69014493                       # Number of tag accesses
system.cpu0.dcache.tags.data_accesses        69014493                       # Number of data accesses
system.cpu0.dcache.pwrStateResidencyTicks::UNDEFINED  90025185699                       # Cumulative time (in ticks) in various power states
system.cpu0.dcache.ReadReq_hits::cpu0.data      1114382                       # number of ReadReq hits
system.cpu0.dcache.ReadReq_hits::total        1114382                       # number of ReadReq hits
system.cpu0.dcache.WriteReq_hits::cpu0.data      6472333                       # number of WriteReq hits
system.cpu0.dcache.WriteReq_hits::total       6472333                       # number of WriteReq hits
system.cpu0.dcache.demand_hits::cpu0.data      7586715                       # number of demand (read+write) hits
system.cpu0.dcache.demand_hits::total         7586715                       # number of demand (read+write) hits
system.cpu0.dcache.overall_hits::cpu0.data      7586715                       # number of overall hits
system.cpu0.dcache.overall_hits::total        7586715                       # number of overall hits
system.cpu0.dcache.ReadReq_misses::cpu0.data          213                       # number of ReadReq misses
system.cpu0.dcache.ReadReq_misses::total          213                       # number of ReadReq misses
system.cpu0.dcache.WriteReq_misses::cpu0.data       924328                       # number of WriteReq misses
system.cpu0.dcache.WriteReq_misses::total       924328                       # number of WriteReq misses
system.cpu0.dcache.demand_misses::cpu0.data       924541                       # number of demand (read+write) misses
system.cpu0.dcache.demand_misses::total        924541                       # number of demand (read+write) misses
system.cpu0.dcache.overall_misses::cpu0.data       924541                       # number of overall misses
system.cpu0.dcache.overall_misses::total       924541                       # number of overall misses
system.cpu0.dcache.ReadReq_miss_latency::cpu0.data     15652665                       # number of ReadReq miss cycles
system.cpu0.dcache.ReadReq_miss_latency::total     15652665                       # number of ReadReq miss cycles
system.cpu0.dcache.WriteReq_miss_latency::cpu0.data  85562642376                       # number of WriteReq miss cycles
system.cpu0.dcache.WriteReq_miss_latency::total  85562642376                       # number of WriteReq miss cycles
system.cpu0.dcache.demand_miss_latency::cpu0.data  85578295041                       # number of demand (read+write) miss cycles
system.cpu0.dcache.demand_miss_latency::total  85578295041                       # number of demand (read+write) miss cycles
system.cpu0.dcache.overall_miss_latency::cpu0.data  85578295041                       # number of overall miss cycles
system.cpu0.dcache.overall_miss_latency::total  85578295041                       # number of overall miss cycles
system.cpu0.dcache.ReadReq_accesses::cpu0.data      1114595                       # number of ReadReq accesses(hits+misses)
system.cpu0.dcache.ReadReq_accesses::total      1114595                       # number of ReadReq accesses(hits+misses)
system.cpu0.dcache.WriteReq_accesses::cpu0.data      7396661                       # number of WriteReq accesses(hits+misses)
system.cpu0.dcache.WriteReq_accesses::total      7396661                       # number of WriteReq accesses(hits+misses)
system.cpu0.dcache.demand_accesses::cpu0.data      8511256                       # number of demand (read+write) accesses
system.cpu0.dcache.demand_accesses::total      8511256                       # number of demand (read+write) accesses
system.cpu0.dcache.overall_accesses::cpu0.data      8511256                       # number of overall (read+write) accesses
system.cpu0.dcache.overall_accesses::total      8511256                       # number of overall (read+write) accesses
system.cpu0.dcache.ReadReq_miss_rate::cpu0.data     0.000191                       # miss rate for ReadReq accesses
system.cpu0.dcache.ReadReq_miss_rate::total     0.000191                       # miss rate for ReadReq accesses
system.cpu0.dcache.WriteReq_miss_rate::cpu0.data     0.124966                       # miss rate for WriteReq accesses
system.cpu0.dcache.WriteReq_miss_rate::total     0.124966                       # miss rate for WriteReq accesses
system.cpu0.dcache.demand_miss_rate::cpu0.data     0.108626                       # miss rate for demand accesses
system.cpu0.dcache.demand_miss_rate::total     0.108626                       # miss rate for demand accesses
system.cpu0.dcache.overall_miss_rate::cpu0.data     0.108626                       # miss rate for overall accesses
system.cpu0.dcache.overall_miss_rate::total     0.108626                       # miss rate for overall accesses
system.cpu0.dcache.ReadReq_avg_miss_latency::cpu0.data 73486.690141                       # average ReadReq miss latency
system.cpu0.dcache.ReadReq_avg_miss_latency::total 73486.690141                       # average ReadReq miss latency
system.cpu0.dcache.WriteReq_avg_miss_latency::cpu0.data 92567.402887                       # average WriteReq miss latency
system.cpu0.dcache.WriteReq_avg_miss_latency::total 92567.402887                       # average WriteReq miss latency
system.cpu0.dcache.demand_avg_miss_latency::cpu0.data 92563.006985                       # average overall miss latency
system.cpu0.dcache.demand_avg_miss_latency::total 92563.006985                       # average overall miss latency
system.cpu0.dcache.overall_avg_miss_latency::cpu0.data 92563.006985                       # average overall miss latency
system.cpu0.dcache.overall_avg_miss_latency::total 92563.006985                       # average overall miss latency
system.cpu0.dcache.blocked_cycles::no_mshrs         1055                       # number of cycles access was blocked
system.cpu0.dcache.blocked_cycles::no_targets            0                       # number of cycles access was blocked
system.cpu0.dcache.blocked::no_mshrs               12                       # number of cycles access was blocked
system.cpu0.dcache.blocked::no_targets              0                       # number of cycles access was blocked
system.cpu0.dcache.avg_blocked_cycles::no_mshrs    87.916667                       # average number of cycles each access was blocked
system.cpu0.dcache.avg_blocked_cycles::no_targets          nan                       # average number of cycles each access was blocked
system.cpu0.dcache.writebacks::writebacks       923848                       # number of writebacks
system.cpu0.dcache.writebacks::total           923848                       # number of writebacks
system.cpu0.dcache.ReadReq_mshr_hits::cpu0.data           93                       # number of ReadReq MSHR hits
system.cpu0.dcache.ReadReq_mshr_hits::total           93                       # number of ReadReq MSHR hits
system.cpu0.dcache.WriteReq_mshr_hits::cpu0.data            2                       # number of WriteReq MSHR hits
system.cpu0.dcache.WriteReq_mshr_hits::total            2                       # number of WriteReq MSHR hits
system.cpu0.dcache.demand_mshr_hits::cpu0.data           95                       # number of demand (read+write) MSHR hits
system.cpu0.dcache.demand_mshr_hits::total           95                       # number of demand (read+write) MSHR hits
system.cpu0.dcache.overall_mshr_hits::cpu0.data           95                       # number of overall MSHR hits
system.cpu0.dcache.overall_mshr_hits::total           95                       # number of overall MSHR hits
system.cpu0.dcache.ReadReq_mshr_misses::cpu0.data          120                       # number of ReadReq MSHR misses
system.cpu0.dcache.ReadReq_mshr_misses::total          120                       # number of ReadReq MSHR misses
system.cpu0.dcache.WriteReq_mshr_misses::cpu0.data       924326                       # number of WriteReq MSHR misses
system.cpu0.dcache.WriteReq_mshr_misses::total       924326                       # number of WriteReq MSHR misses
system.cpu0.dcache.demand_mshr_misses::cpu0.data       924446                       # number of demand (read+write) MSHR misses
system.cpu0.dcache.demand_mshr_misses::total       924446                       # number of demand (read+write) MSHR misses
system.cpu0.dcache.overall_mshr_misses::cpu0.data       924446                       # number of overall MSHR misses
system.cpu0.dcache.overall_mshr_misses::total       924446                       # number of overall MSHR misses
system.cpu0.dcache.ReadReq_mshr_miss_latency::cpu0.data      9576747                       # number of ReadReq MSHR miss cycles
system.cpu0.dcache.ReadReq_mshr_miss_latency::total      9576747                       # number of ReadReq MSHR miss cycles
system.cpu0.dcache.WriteReq_mshr_miss_latency::cpu0.data  84946937364                       # number of WriteReq MSHR miss cycles
system.cpu0.dcache.WriteReq_mshr_miss_latency::total  84946937364                       # number of WriteReq MSHR miss cycles
system.cpu0.dcache.demand_mshr_miss_latency::cpu0.data  84956514111                       # number of demand (read+write) MSHR miss cycles
system.cpu0.dcache.demand_mshr_miss_latency::total  84956514111                       # number of demand (read+write) MSHR miss cycles
system.cpu0.dcache.overall_mshr_miss_latency::cpu0.data  84956514111                       # number of overall MSHR miss cycles
system.cpu0.dcache.overall_mshr_miss_latency::total  84956514111                       # number of overall MSHR miss cycles
system.cpu0.dcache.ReadReq_mshr_miss_rate::cpu0.data     0.000108                       # mshr miss rate for ReadReq accesses
system.cpu0.dcache.ReadReq_mshr_miss_rate::total     0.000108                       # mshr miss rate for ReadReq accesses
system.cpu0.dcache.WriteReq_mshr_miss_rate::cpu0.data     0.124965                       # mshr miss rate for WriteReq accesses
system.cpu0.dcache.WriteReq_mshr_miss_rate::total     0.124965                       # mshr miss rate for WriteReq accesses
system.cpu0.dcache.demand_mshr_miss_rate::cpu0.data     0.108615                       # mshr miss rate for demand accesses
system.cpu0.dcache.demand_mshr_miss_rate::total     0.108615                       # mshr miss rate for demand accesses
system.cpu0.dcache.overall_mshr_miss_rate::cpu0.data     0.108615                       # mshr miss rate for overall accesses
system.cpu0.dcache.overall_mshr_miss_rate::total     0.108615                       # mshr miss rate for overall accesses
system.cpu0.dcache.ReadReq_avg_mshr_miss_latency::cpu0.data 79806.225000                       # average ReadReq mshr miss latency
system.cpu0.dcache.ReadReq_avg_mshr_miss_latency::total 79806.225000                       # average ReadReq mshr miss latency
system.cpu0.dcache.WriteReq_avg_mshr_miss_latency::cpu0.data 91901.490777                       # average WriteReq mshr miss latency
system.cpu0.dcache.WriteReq_avg_mshr_miss_latency::total 91901.490777                       # average WriteReq mshr miss latency
system.cpu0.dcache.demand_avg_mshr_miss_latency::cpu0.data 91899.920721                       # average overall mshr miss latency
system.cpu0.dcache.demand_avg_mshr_miss_latency::total 91899.920721                       # average overall mshr miss latency
system.cpu0.dcache.overall_avg_mshr_miss_latency::cpu0.data 91899.920721                       # average overall mshr miss latency
system.cpu0.dcache.overall_avg_mshr_miss_latency::total 91899.920721                       # average overall mshr miss latency
system.cpu0.dtb_walker_cache.tags.pwrStateResidencyTicks::UNDEFINED  90025185699                       # Cumulative time (in ticks) in various power states
system.cpu0.dtb_walker_cache.tags.replacements            0                       # number of replacements
system.cpu0.dtb_walker_cache.tags.tagsinuse            0                       # Cycle average of tags in use
system.cpu0.dtb_walker_cache.tags.total_refs            0                       # Total number of references to valid blocks.
system.cpu0.dtb_walker_cache.tags.sampled_refs            0                       # Sample count of references to valid blocks.
system.cpu0.dtb_walker_cache.tags.avg_refs          nan                       # Average number of references to valid blocks.
system.cpu0.dtb_walker_cache.tags.warmup_cycle            0                       # Cycle when the warmup percentage was hit.
system.cpu0.dtb_walker_cache.tags.tag_accesses            0                       # Number of tag accesses
system.cpu0.dtb_walker_cache.tags.data_accesses            0                       # Number of data accesses
system.cpu0.dtb_walker_cache.pwrStateResidencyTicks::UNDEFINED  90025185699                       # Cumulative time (in ticks) in various power states
system.cpu0.dtb_walker_cache.blocked_cycles::no_mshrs            0                       # number of cycles access was blocked
system.cpu0.dtb_walker_cache.blocked_cycles::no_targets            0                       # number of cycles access was blocked
system.cpu0.dtb_walker_cache.blocked::no_mshrs            0                       # number of cycles access was blocked
system.cpu0.dtb_walker_cache.blocked::no_targets            0                       # number of cycles access was blocked
system.cpu0.dtb_walker_cache.avg_blocked_cycles::no_mshrs          nan                       # average number of cycles each access was blocked
system.cpu0.dtb_walker_cache.avg_blocked_cycles::no_targets          nan                       # average number of cycles each access was blocked
system.cpu0.icache.tags.pwrStateResidencyTicks::UNDEFINED  90025185699                       # Cumulative time (in ticks) in various power states
system.cpu0.icache.tags.replacements              182                       # number of replacements
system.cpu0.icache.tags.tagsinuse          501.911983                       # Cycle average of tags in use
system.cpu0.icache.tags.total_refs            1483629                       # Total number of references to valid blocks.
system.cpu0.icache.tags.sampled_refs              684                       # Sample count of references to valid blocks.
system.cpu0.icache.tags.avg_refs          2169.048246                       # Average number of references to valid blocks.
system.cpu0.icache.tags.warmup_cycle            76257                       # Cycle when the warmup percentage was hit.
system.cpu0.icache.tags.occ_blocks::cpu0.inst   501.911983                       # Average occupied blocks per requestor
system.cpu0.icache.tags.occ_percent::cpu0.inst     0.980297                       # Average percentage of cache occupancy
system.cpu0.icache.tags.occ_percent::total     0.980297                       # Average percentage of cache occupancy
system.cpu0.icache.tags.occ_task_id_blocks::1024          502                       # Occupied blocks per task id
system.cpu0.icache.tags.age_task_id_blocks_1024::4          502                       # Occupied blocks per task id
system.cpu0.icache.tags.occ_task_id_percent::1024     0.980469                       # Percentage of cache occupancy per task id
system.cpu0.icache.tags.tag_accesses         11876732                       # Number of tag accesses
system.cpu0.icache.tags.data_accesses        11876732                       # Number of data accesses
system.cpu0.icache.pwrStateResidencyTicks::UNDEFINED  90025185699                       # Cumulative time (in ticks) in various power states
system.cpu0.icache.ReadReq_hits::cpu0.inst      1483629                       # number of ReadReq hits
system.cpu0.icache.ReadReq_hits::total        1483629                       # number of ReadReq hits
system.cpu0.icache.demand_hits::cpu0.inst      1483629                       # number of demand (read+write) hits
system.cpu0.icache.demand_hits::total         1483629                       # number of demand (read+write) hits
system.cpu0.icache.overall_hits::cpu0.inst      1483629                       # number of overall hits
system.cpu0.icache.overall_hits::total        1483629                       # number of overall hits
system.cpu0.icache.ReadReq_misses::cpu0.inst          877                       # number of ReadReq misses
system.cpu0.icache.ReadReq_misses::total          877                       # number of ReadReq misses
system.cpu0.icache.demand_misses::cpu0.inst          877                       # number of demand (read+write) misses
system.cpu0.icache.demand_misses::total           877                       # number of demand (read+write) misses
system.cpu0.icache.overall_misses::cpu0.inst          877                       # number of overall misses
system.cpu0.icache.overall_misses::total          877                       # number of overall misses
system.cpu0.icache.ReadReq_miss_latency::cpu0.inst     55371238                       # number of ReadReq miss cycles
system.cpu0.icache.ReadReq_miss_latency::total     55371238                       # number of ReadReq miss cycles
system.cpu0.icache.demand_miss_latency::cpu0.inst     55371238                       # number of demand (read+write) miss cycles
system.cpu0.icache.demand_miss_latency::total     55371238                       # number of demand (read+write) miss cycles
system.cpu0.icache.overall_miss_latency::cpu0.inst     55371238                       # number of overall miss cycles
system.cpu0.icache.overall_miss_latency::total     55371238                       # number of overall miss cycles
system.cpu0.icache.ReadReq_accesses::cpu0.inst      1484506                       # number of ReadReq accesses(hits+misses)
system.cpu0.icache.ReadReq_accesses::total      1484506                       # number of ReadReq accesses(hits+misses)
system.cpu0.icache.demand_accesses::cpu0.inst      1484506                       # number of demand (read+write) accesses
system.cpu0.icache.demand_accesses::total      1484506                       # number of demand (read+write) accesses
system.cpu0.icache.overall_accesses::cpu0.inst      1484506                       # number of overall (read+write) accesses
system.cpu0.icache.overall_accesses::total      1484506                       # number of overall (read+write) accesses
system.cpu0.icache.ReadReq_miss_rate::cpu0.inst     0.000591                       # miss rate for ReadReq accesses
system.cpu0.icache.ReadReq_miss_rate::total     0.000591                       # miss rate for ReadReq accesses
system.cpu0.icache.demand_miss_rate::cpu0.inst     0.000591                       # miss rate for demand accesses
system.cpu0.icache.demand_miss_rate::total     0.000591                       # miss rate for demand accesses
system.cpu0.icache.overall_miss_rate::cpu0.inst     0.000591                       # miss rate for overall accesses
system.cpu0.icache.overall_miss_rate::total     0.000591                       # miss rate for overall accesses
system.cpu0.icache.ReadReq_avg_miss_latency::cpu0.inst 63137.101482                       # average ReadReq miss latency
system.cpu0.icache.ReadReq_avg_miss_latency::total 63137.101482                       # average ReadReq miss latency
system.cpu0.icache.demand_avg_miss_latency::cpu0.inst 63137.101482                       # average overall miss latency
system.cpu0.icache.demand_avg_miss_latency::total 63137.101482                       # average overall miss latency
system.cpu0.icache.overall_avg_miss_latency::cpu0.inst 63137.101482                       # average overall miss latency
system.cpu0.icache.overall_avg_miss_latency::total 63137.101482                       # average overall miss latency
system.cpu0.icache.blocked_cycles::no_mshrs         1913                       # number of cycles access was blocked
system.cpu0.icache.blocked_cycles::no_targets            0                       # number of cycles access was blocked
system.cpu0.icache.blocked::no_mshrs                8                       # number of cycles access was blocked
system.cpu0.icache.blocked::no_targets              0                       # number of cycles access was blocked
system.cpu0.icache.avg_blocked_cycles::no_mshrs   239.125000                       # average number of cycles each access was blocked
system.cpu0.icache.avg_blocked_cycles::no_targets          nan                       # average number of cycles each access was blocked
system.cpu0.icache.writebacks::writebacks          182                       # number of writebacks
system.cpu0.icache.writebacks::total              182                       # number of writebacks
system.cpu0.icache.ReadReq_mshr_hits::cpu0.inst          193                       # number of ReadReq MSHR hits
system.cpu0.icache.ReadReq_mshr_hits::total          193                       # number of ReadReq MSHR hits
system.cpu0.icache.demand_mshr_hits::cpu0.inst          193                       # number of demand (read+write) MSHR hits
system.cpu0.icache.demand_mshr_hits::total          193                       # number of demand (read+write) MSHR hits
system.cpu0.icache.overall_mshr_hits::cpu0.inst          193                       # number of overall MSHR hits
system.cpu0.icache.overall_mshr_hits::total          193                       # number of overall MSHR hits
system.cpu0.icache.ReadReq_mshr_misses::cpu0.inst          684                       # number of ReadReq MSHR misses
system.cpu0.icache.ReadReq_mshr_misses::total          684                       # number of ReadReq MSHR misses
system.cpu0.icache.demand_mshr_misses::cpu0.inst          684                       # number of demand (read+write) MSHR misses
system.cpu0.icache.demand_mshr_misses::total          684                       # number of demand (read+write) MSHR misses
system.cpu0.icache.overall_mshr_misses::cpu0.inst          684                       # number of overall MSHR misses
system.cpu0.icache.overall_mshr_misses::total          684                       # number of overall MSHR misses
system.cpu0.icache.ReadReq_mshr_miss_latency::cpu0.inst     44785503                       # number of ReadReq MSHR miss cycles
system.cpu0.icache.ReadReq_mshr_miss_latency::total     44785503                       # number of ReadReq MSHR miss cycles
system.cpu0.icache.demand_mshr_miss_latency::cpu0.inst     44785503                       # number of demand (read+write) MSHR miss cycles
system.cpu0.icache.demand_mshr_miss_latency::total     44785503                       # number of demand (read+write) MSHR miss cycles
system.cpu0.icache.overall_mshr_miss_latency::cpu0.inst     44785503                       # number of overall MSHR miss cycles
system.cpu0.icache.overall_mshr_miss_latency::total     44785503                       # number of overall MSHR miss cycles
system.cpu0.icache.ReadReq_mshr_miss_rate::cpu0.inst     0.000461                       # mshr miss rate for ReadReq accesses
system.cpu0.icache.ReadReq_mshr_miss_rate::total     0.000461                       # mshr miss rate for ReadReq accesses
system.cpu0.icache.demand_mshr_miss_rate::cpu0.inst     0.000461                       # mshr miss rate for demand accesses
system.cpu0.icache.demand_mshr_miss_rate::total     0.000461                       # mshr miss rate for demand accesses
system.cpu0.icache.overall_mshr_miss_rate::cpu0.inst     0.000461                       # mshr miss rate for overall accesses
system.cpu0.icache.overall_mshr_miss_rate::total     0.000461                       # mshr miss rate for overall accesses
system.cpu0.icache.ReadReq_avg_mshr_miss_latency::cpu0.inst 65475.881579                       # average ReadReq mshr miss latency
system.cpu0.icache.ReadReq_avg_mshr_miss_latency::total 65475.881579                       # average ReadReq mshr miss latency
system.cpu0.icache.demand_avg_mshr_miss_latency::cpu0.inst 65475.881579                       # average overall mshr miss latency
system.cpu0.icache.demand_avg_mshr_miss_latency::total 65475.881579                       # average overall mshr miss latency
system.cpu0.icache.overall_avg_mshr_miss_latency::cpu0.inst 65475.881579                       # average overall mshr miss latency
system.cpu0.icache.overall_avg_mshr_miss_latency::total 65475.881579                       # average overall mshr miss latency
system.cpu0.itb_walker_cache.tags.pwrStateResidencyTicks::UNDEFINED  90025185699                       # Cumulative time (in ticks) in various power states
system.cpu0.itb_walker_cache.tags.replacements            0                       # number of replacements
system.cpu0.itb_walker_cache.tags.tagsinuse            0                       # Cycle average of tags in use
system.cpu0.itb_walker_cache.tags.total_refs            0                       # Total number of references to valid blocks.
system.cpu0.itb_walker_cache.tags.sampled_refs            0                       # Sample count of references to valid blocks.
system.cpu0.itb_walker_cache.tags.avg_refs          nan                       # Average number of references to valid blocks.
system.cpu0.itb_walker_cache.tags.warmup_cycle            0                       # Cycle when the warmup percentage was hit.
system.cpu0.itb_walker_cache.tags.tag_accesses            0                       # Number of tag accesses
system.cpu0.itb_walker_cache.tags.data_accesses            0                       # Number of data accesses
system.cpu0.itb_walker_cache.pwrStateResidencyTicks::UNDEFINED  90025185699                       # Cumulative time (in ticks) in various power states
system.cpu0.itb_walker_cache.blocked_cycles::no_mshrs            0                       # number of cycles access was blocked
system.cpu0.itb_walker_cache.blocked_cycles::no_targets            0                       # number of cycles access was blocked
system.cpu0.itb_walker_cache.blocked::no_mshrs            0                       # number of cycles access was blocked
system.cpu0.itb_walker_cache.blocked::no_targets            0                       # number of cycles access was blocked
system.cpu0.itb_walker_cache.avg_blocked_cycles::no_mshrs          nan                       # average number of cycles each access was blocked
system.cpu0.itb_walker_cache.avg_blocked_cycles::no_targets          nan                       # average number of cycles each access was blocked
system.cpu0.l2cache.tags.pwrStateResidencyTicks::UNDEFINED  90025185699                       # Cumulative time (in ticks) in various power states
system.cpu0.l2cache.tags.replacements          921012                       # number of replacements
system.cpu0.l2cache.tags.tagsinuse        4090.782457                       # Cycle average of tags in use
system.cpu0.l2cache.tags.total_refs            924133                       # Total number of references to valid blocks.
system.cpu0.l2cache.tags.sampled_refs          925108                       # Sample count of references to valid blocks.
system.cpu0.l2cache.tags.avg_refs            0.998946                       # Average number of references to valid blocks.
system.cpu0.l2cache.tags.warmup_cycle           73000                       # Cycle when the warmup percentage was hit.
system.cpu0.l2cache.tags.occ_blocks::writebacks     0.004141                       # Average occupied blocks per requestor
system.cpu0.l2cache.tags.occ_blocks::cpu0.inst     1.555251                       # Average occupied blocks per requestor
system.cpu0.l2cache.tags.occ_blocks::cpu0.data  4089.223065                       # Average occupied blocks per requestor
system.cpu0.l2cache.tags.occ_percent::writebacks     0.000001                       # Average percentage of cache occupancy
system.cpu0.l2cache.tags.occ_percent::cpu0.inst     0.000380                       # Average percentage of cache occupancy
system.cpu0.l2cache.tags.occ_percent::cpu0.data     0.998345                       # Average percentage of cache occupancy
system.cpu0.l2cache.tags.occ_percent::total     0.998726                       # Average percentage of cache occupancy
system.cpu0.l2cache.tags.occ_task_id_blocks::1024         4096                       # Occupied blocks per task id
system.cpu0.l2cache.tags.age_task_id_blocks_1024::0          103                       # Occupied blocks per task id
system.cpu0.l2cache.tags.age_task_id_blocks_1024::1          911                       # Occupied blocks per task id
system.cpu0.l2cache.tags.age_task_id_blocks_1024::2         3082                       # Occupied blocks per task id
system.cpu0.l2cache.tags.occ_task_id_percent::1024            1                       # Percentage of cache occupancy per task id
system.cpu0.l2cache.tags.tag_accesses         8322076                       # Number of tag accesses
system.cpu0.l2cache.tags.data_accesses        8322076                       # Number of data accesses
system.cpu0.l2cache.pwrStateResidencyTicks::UNDEFINED  90025185699                       # Cumulative time (in ticks) in various power states
system.cpu0.l2cache.WritebackDirty_hits::writebacks       923848                       # number of WritebackDirty hits
system.cpu0.l2cache.WritebackDirty_hits::total       923848                       # number of WritebackDirty hits
system.cpu0.l2cache.WritebackClean_hits::writebacks          182                       # number of WritebackClean hits
system.cpu0.l2cache.WritebackClean_hits::total          182                       # number of WritebackClean hits
system.cpu0.l2cache.ReadCleanReq_hits::cpu0.inst           21                       # number of ReadCleanReq hits
system.cpu0.l2cache.ReadCleanReq_hits::total           21                       # number of ReadCleanReq hits
system.cpu0.l2cache.ReadSharedReq_hits::cpu0.data            2                       # number of ReadSharedReq hits
system.cpu0.l2cache.ReadSharedReq_hits::total            2                       # number of ReadSharedReq hits
system.cpu0.l2cache.demand_hits::cpu0.inst           21                       # number of demand (read+write) hits
system.cpu0.l2cache.demand_hits::cpu0.data            2                       # number of demand (read+write) hits
system.cpu0.l2cache.demand_hits::total             23                       # number of demand (read+write) hits
system.cpu0.l2cache.overall_hits::cpu0.inst           21                       # number of overall hits
system.cpu0.l2cache.overall_hits::cpu0.data            2                       # number of overall hits
system.cpu0.l2cache.overall_hits::total            23                       # number of overall hits
system.cpu0.l2cache.ReadExReq_misses::cpu0.data       924326                       # number of ReadExReq misses
system.cpu0.l2cache.ReadExReq_misses::total       924326                       # number of ReadExReq misses
system.cpu0.l2cache.ReadCleanReq_misses::cpu0.inst          663                       # number of ReadCleanReq misses
[...]
system.l3.demand_mshr_miss_latency::cpu1.inst     33445979                       # number of demand (read+write) MSHR miss cycles
system.l3.demand_mshr_miss_latency::cpu1.data  70676428630                       # number of demand (read+write) MSHR miss cycles
system.l3.demand_mshr_miss_latency::cpu2.inst     34081024                       # number of demand (read+write) MSHR miss cycles
system.l3.demand_mshr_miss_latency::cpu2.data  70673282649                       # number of demand (read+write) MSHR miss cycles
system.l3.demand_mshr_miss_latency::cpu3.inst     34118968                       # number of demand (read+write) MSHR miss cycles
system.l3.demand_mshr_miss_latency::cpu3.data  70781045158                       # number of demand (read+write) MSHR miss cycles
system.l3.demand_mshr_miss_latency::total 282971824633                       # number of demand (read+write) MSHR miss cycles
system.l3.overall_mshr_miss_latency::cpu0.inst     34804744                       # number of overall MSHR miss cycles
system.l3.overall_mshr_miss_latency::cpu0.data  70704617481                       # number of overall MSHR miss cycles
system.l3.overall_mshr_miss_latency::cpu1.inst     33445979                       # number of overall MSHR miss cycles
system.l3.overall_mshr_miss_latency::cpu1.data  70676428630                       # number of overall MSHR miss cycles
system.l3.overall_mshr_miss_latency::cpu2.inst     34081024                       # number of overall MSHR miss cycles
system.l3.overall_mshr_miss_latency::cpu2.data  70673282649                       # number of overall MSHR miss cycles
system.l3.overall_mshr_miss_latency::cpu3.inst     34118968                       # number of overall MSHR miss cycles
system.l3.overall_mshr_miss_latency::cpu3.data  70781045158                       # number of overall MSHR miss cycles
system.l3.overall_mshr_miss_latency::total 282971824633                       # number of overall MSHR miss cycles
system.l3.ReadExReq_mshr_miss_rate::cpu0.data            1                       # mshr miss rate for ReadExReq accesses
system.l3.ReadExReq_mshr_miss_rate::cpu1.data            1                       # mshr miss rate for ReadExReq accesses
system.l3.ReadExReq_mshr_miss_rate::cpu2.data            1                       # mshr miss rate for ReadExReq accesses
system.l3.ReadExReq_mshr_miss_rate::cpu3.data            1                       # mshr miss rate for ReadExReq accesses
system.l3.ReadExReq_mshr_miss_rate::total            1                       # mshr miss rate for ReadExReq accesses
system.l3.ReadSharedReq_mshr_miss_rate::cpu0.inst            1                       # mshr miss rate for ReadSharedReq accesses
system.l3.ReadSharedReq_mshr_miss_rate::cpu0.data            1                       # mshr miss rate for ReadSharedReq accesses
system.l3.ReadSharedReq_mshr_miss_rate::cpu1.inst            1                       # mshr miss rate for ReadSharedReq accesses
system.l3.ReadSharedReq_mshr_miss_rate::cpu1.data            1                       # mshr miss rate for ReadSharedReq accesses
system.l3.ReadSharedReq_mshr_miss_rate::cpu2.inst            1                       # mshr miss rate for ReadSharedReq accesses
system.l3.ReadSharedReq_mshr_miss_rate::cpu2.data            1                       # mshr miss rate for ReadSharedReq accesses
system.l3.ReadSharedReq_mshr_miss_rate::cpu3.inst            1                       # mshr miss rate for ReadSharedReq accesses
system.l3.ReadSharedReq_mshr_miss_rate::cpu3.data            1                       # mshr miss rate for ReadSharedReq accesses
system.l3.ReadSharedReq_mshr_miss_rate::total            1                       # mshr miss rate for ReadSharedReq accesses
system.l3.demand_mshr_miss_rate::cpu0.inst            1                       # mshr miss rate for demand accesses
system.l3.demand_mshr_miss_rate::cpu0.data            1                       # mshr miss rate for demand accesses
system.l3.demand_mshr_miss_rate::cpu1.inst            1                       # mshr miss rate for demand accesses
system.l3.demand_mshr_miss_rate::cpu1.data            1                       # mshr miss rate for demand accesses
system.l3.demand_mshr_miss_rate::cpu2.inst            1                       # mshr miss rate for demand accesses
system.l3.demand_mshr_miss_rate::cpu2.data            1                       # mshr miss rate for demand accesses
system.l3.demand_mshr_miss_rate::cpu3.inst            1                       # mshr miss rate for demand accesses
system.l3.demand_mshr_miss_rate::cpu3.data            1                       # mshr miss rate for demand accesses
system.l3.demand_mshr_miss_rate::total              1                       # mshr miss rate for demand accesses
system.l3.overall_mshr_miss_rate::cpu0.inst            1                       # mshr miss rate for overall accesses
system.l3.overall_mshr_miss_rate::cpu0.data            1                       # mshr miss rate for overall accesses
system.l3.overall_mshr_miss_rate::cpu1.inst            1                       # mshr miss rate for overall accesses
system.l3.overall_mshr_miss_rate::cpu1.data            1                       # mshr miss rate for overall accesses
system.l3.overall_mshr_miss_rate::cpu2.inst            1                       # mshr miss rate for overall accesses
system.l3.overall_mshr_miss_rate::cpu2.data            1                       # mshr miss rate for overall accesses
system.l3.overall_mshr_miss_rate::cpu3.inst            1                       # mshr miss rate for overall accesses
system.l3.overall_mshr_miss_rate::cpu3.data            1                       # mshr miss rate for overall accesses
system.l3.overall_mshr_miss_rate::total             1                       # mshr miss rate for overall accesses
system.l3.ReadExReq_avg_mshr_miss_latency::cpu0.data 76484.837686                       # average ReadExReq mshr miss latency
system.l3.ReadExReq_avg_mshr_miss_latency::cpu1.data 76526.997935                       # average ReadExReq mshr miss latency
system.l3.ReadExReq_avg_mshr_miss_latency::cpu2.data 76590.606669                       # average ReadExReq mshr miss latency
system.l3.ReadExReq_avg_mshr_miss_latency::cpu3.data 76821.128331                       # average ReadExReq mshr miss latency
system.l3.ReadExReq_avg_mshr_miss_latency::total 76605.739477                       # average ReadExReq mshr miss latency
system.l3.ReadSharedReq_avg_mshr_miss_latency::cpu0.inst 52495.843137                       # average ReadSharedReq mshr miss latency
system.l3.ReadSharedReq_avg_mshr_miss_latency::cpu0.data 65846.500000                       # average ReadSharedReq mshr miss latency
system.l3.ReadSharedReq_avg_mshr_miss_latency::cpu1.inst 50068.830838                       # average ReadSharedReq mshr miss latency
system.l3.ReadSharedReq_avg_mshr_miss_latency::cpu1.data 71393.650000                       # average ReadSharedReq mshr miss latency
system.l3.ReadSharedReq_avg_mshr_miss_latency::cpu2.inst 51481.909366                       # average ReadSharedReq mshr miss latency
system.l3.ReadSharedReq_avg_mshr_miss_latency::cpu2.data 64298.831858                       # average ReadSharedReq mshr miss latency
system.l3.ReadSharedReq_avg_mshr_miss_latency::cpu3.inst 51076.299401                       # average ReadSharedReq mshr miss latency
system.l3.ReadSharedReq_avg_mshr_miss_latency::cpu3.data 79916.410256                       # average ReadSharedReq mshr miss latency
system.l3.ReadSharedReq_avg_mshr_miss_latency::total 54139.925855                       # average ReadSharedReq mshr miss latency
system.l3.demand_avg_mshr_miss_latency::cpu0.inst 52495.843137                       # average overall mshr miss latency
system.l3.demand_avg_mshr_miss_latency::cpu0.data 76483.479761                       # average overall mshr miss latency
system.l3.demand_avg_mshr_miss_latency::cpu1.inst 50068.830838                       # average overall mshr miss latency
system.l3.demand_avg_mshr_miss_latency::cpu1.data 76526.330947                       # average overall mshr miss latency
system.l3.demand_avg_mshr_miss_latency::cpu2.inst 51481.909366                       # average overall mshr miss latency
system.l3.demand_avg_mshr_miss_latency::cpu2.data 76589.101433                       # average overall mshr miss latency
system.l3.demand_avg_mshr_miss_latency::cpu3.inst 51076.299401                       # average overall mshr miss latency
system.l3.demand_avg_mshr_miss_latency::cpu3.data 76821.521384                       # average overall mshr miss latency
system.l3.demand_avg_mshr_miss_latency::total 76586.713895                       # average overall mshr miss latency
system.l3.overall_avg_mshr_miss_latency::cpu0.inst 52495.843137                       # average overall mshr miss latency
system.l3.overall_avg_mshr_miss_latency::cpu0.data 76483.479761                       # average overall mshr miss latency
system.l3.overall_avg_mshr_miss_latency::cpu1.inst 50068.830838                       # average overall mshr miss latency
system.l3.overall_avg_mshr_miss_latency::cpu1.data 76526.330947                       # average overall mshr miss latency
system.l3.overall_avg_mshr_miss_latency::cpu2.inst 51481.909366                       # average overall mshr miss latency
system.l3.overall_avg_mshr_miss_latency::cpu2.data 76589.101433                       # average overall mshr miss latency
system.l3.overall_avg_mshr_miss_latency::cpu3.inst 51076.299401                       # average overall mshr miss latency
system.l3.overall_avg_mshr_miss_latency::cpu3.data 76821.521384                       # average overall mshr miss latency
system.l3.overall_avg_mshr_miss_latency::total 76586.713895                       # average overall mshr miss latency
system.membus.snoop_filter.tot_requests       7256490                       # Total number of requests made to the snoop filter.
system.membus.snoop_filter.hit_single_requests      3561701                       # Number of requests hitting in the snoop filter with a single holder of the requested data.
system.membus.snoop_filter.hit_multi_requests            0                       # Number of requests hitting in the snoop filter with multiple (>1) holders of the requested data.
system.membus.snoop_filter.tot_snoops               0                       # Total number of snoops made to the snoop filter.
system.membus.snoop_filter.hit_single_snoops            0                       # Number of snoops hitting in the snoop filter with a single holder of the requested data.
system.membus.snoop_filter.hit_multi_snoops            0                       # Number of snoops hitting in the snoop filter with multiple (>1) holders of the requested data.
system.membus.pwrStateResidencyTicks::UNDEFINED  90025185699                       # Cumulative time (in ticks) in various power states
system.membus.trans_dist::ReadResp               3129                       # Transaction distribution
system.membus.trans_dist::WritebackDirty      3560726                       # Transaction distribution
system.membus.trans_dist::CleanEvict              975                       # Transaction distribution
system.membus.trans_dist::ReadExReq           3691660                       # Transaction distribution
system.membus.trans_dist::ReadExResp          3691660                       # Transaction distribution
system.membus.trans_dist::ReadSharedReq          3129                       # Transaction distribution
system.membus.pkt_count_system.l3.mem_side::system.mem_ctrls.port     10951279                       # Packet count per connected master and slave (bytes)
system.membus.pkt_count_system.l3.mem_side::total     10951279                       # Packet count per connected master and slave (bytes)
system.membus.pkt_count::total               10951279                       # Packet count per connected master and slave (bytes)
system.membus.pkt_size_system.l3.mem_side::system.mem_ctrls.port    464352960                       # Cumulative packet size per connected master and slave (bytes)
system.membus.pkt_size_system.l3.mem_side::total    464352960                       # Cumulative packet size per connected master and slave (bytes)
system.membus.pkt_size::total               464352960                       # Cumulative packet size per connected master and slave (bytes)
system.membus.snoops                                0                       # Total snoops (count)
system.membus.snoopTraffic                          0                       # Total snoop traffic (bytes)
system.membus.snoop_fanout::samples           3694789                       # Request fanout histogram
system.membus.snoop_fanout::mean                    0                       # Request fanout histogram
system.membus.snoop_fanout::stdev                   0                       # Request fanout histogram
system.membus.snoop_fanout::underflows              0      0.00%      0.00% # Request fanout histogram
system.membus.snoop_fanout::0                 3694789    100.00%    100.00% # Request fanout histogram
system.membus.snoop_fanout::1                       0      0.00%    100.00% # Request fanout histogram
system.membus.snoop_fanout::overflows               0      0.00%    100.00% # Request fanout histogram
system.membus.snoop_fanout::min_value               0                       # Request fanout histogram
system.membus.snoop_fanout::max_value               0                       # Request fanout histogram
system.membus.snoop_fanout::total             3694789                       # Request fanout histogram
system.membus.reqLayer8.occupancy         22613363184                       # Layer occupancy (ticks)
system.membus.reqLayer8.utilization              25.1                       # Layer utilization (%)
system.membus.respLayer1.occupancy        19298956831                       # Layer occupancy (ticks)
system.membus.respLayer1.utilization             21.4                       # Layer utilization (%)
system.tol3bus.snoop_filter.tot_requests      7371179                       # Total number of requests made to the snoop filter.
system.tol3bus.snoop_filter.hit_single_requests      3676389                       # Number of requests hitting in the snoop filter with a single holder of the requested data.
system.tol3bus.snoop_filter.hit_multi_requests            0                       # Number of requests hitting in the snoop filter with multiple (>1) holders of the requested data.
system.tol3bus.snoop_filter.tot_snoops           2016                       # Total number of snoops made to the snoop filter.
system.tol3bus.snoop_filter.hit_single_snoops         2016                       # Number of snoops hitting in the snoop filter with a single holder of the requested data.
system.tol3bus.snoop_filter.hit_multi_snoops            0                       # Number of snoops hitting in the snoop filter with multiple (>1) holders of the requested data.
system.tol3bus.pwrStateResidencyTicks::UNDEFINED  90025185699                       # Cumulative time (in ticks) in various power states
system.tol3bus.trans_dist::ReadResp              3129                       # Transaction distribution
system.tol3bus.trans_dist::WritebackDirty      7236140                       # Transaction distribution
system.tol3bus.trans_dist::CleanEvict            3966                       # Transaction distribution
system.tol3bus.trans_dist::ReadExReq          3691661                       # Transaction distribution
system.tol3bus.trans_dist::ReadExResp         3691660                       # Transaction distribution
system.tol3bus.trans_dist::ReadSharedReq         3129                       # Transaction distribution
system.tol3bus.pkt_count_system.cpu0.l2cache.mem_side::system.l3.cpu_side      2770719                       # Packet count per connected master and slave (bytes)
system.tol3bus.pkt_count_system.cpu1.l2cache.mem_side::system.l3.cpu_side      2768075                       # Packet count per connected master and slave (bytes)
system.tol3bus.pkt_count_system.cpu2.l2cache.mem_side::system.l3.cpu_side      2765662                       # Packet count per connected master and slave (bytes)
system.tol3bus.pkt_count_system.cpu3.l2cache.mem_side::system.l3.cpu_side      2761512                       # Packet count per connected master and slave (bytes)
system.tol3bus.pkt_count::total              11065968                       # Packet count per connected master and slave (bytes)
system.tol3bus.pkt_size_system.cpu0.l2cache.mem_side::system.l3.cpu_side    118103616                       # Cumulative packet size per connected master and slave (bytes)
system.tol3bus.pkt_size_system.cpu1.l2cache.mem_side::system.l3.cpu_side    117990464                       # Cumulative packet size per connected master and slave (bytes)
system.tol3bus.pkt_size_system.cpu2.l2cache.mem_side::system.l3.cpu_side    117888192                       # Cumulative packet size per connected master and slave (bytes)
system.tol3bus.pkt_size_system.cpu3.l2cache.mem_side::system.l3.cpu_side    117710720                       # Cumulative packet size per connected master and slave (bytes)
system.tol3bus.pkt_size::total              471692992                       # Cumulative packet size per connected master and slave (bytes)
system.tol3bus.snoops                         3563717                       # Total snoops (count)
system.tol3bus.snoopTraffic                 227886464                       # Total snoop traffic (bytes)
system.tol3bus.snoop_fanout::samples          7258507                       # Request fanout histogram
system.tol3bus.snoop_fanout::mean            0.000278                       # Request fanout histogram
system.tol3bus.snoop_fanout::stdev           0.016663                       # Request fanout histogram
system.tol3bus.snoop_fanout::underflows             0      0.00%      0.00% # Request fanout histogram
system.tol3bus.snoop_fanout::0                7256491     99.97%     99.97% # Request fanout histogram
system.tol3bus.snoop_fanout::1                   2016      0.03%    100.00% # Request fanout histogram
system.tol3bus.snoop_fanout::2                      0      0.00%    100.00% # Request fanout histogram
system.tol3bus.snoop_fanout::3                      0      0.00%    100.00% # Request fanout histogram
system.tol3bus.snoop_fanout::4                      0      0.00%    100.00% # Request fanout histogram
system.tol3bus.snoop_fanout::overflows              0      0.00%    100.00% # Request fanout histogram
system.tol3bus.snoop_fanout::min_value              0                       # Request fanout histogram
system.tol3bus.snoop_fanout::max_value              1                       # Request fanout histogram
system.tol3bus.snoop_fanout::total            7258507                       # Request fanout histogram
system.tol3bus.reqLayer0.occupancy        16548100649                       # Layer occupancy (ticks)
system.tol3bus.reqLayer0.utilization             18.4                       # Layer utilization (%)
system.tol3bus.respLayer0.occupancy        2936335099                       # Layer occupancy (ticks)
system.tol3bus.respLayer0.utilization             3.3                       # Layer utilization (%)
system.tol3bus.respLayer1.occupancy        2933533480                       # Layer occupancy (ticks)
system.tol3bus.respLayer1.utilization             3.3                       # Layer utilization (%)
system.tol3bus.respLayer2.occupancy        2930959790                       # Layer occupancy (ticks)
system.tol3bus.respLayer2.utilization             3.3                       # Layer utilization (%)
system.tol3bus.respLayer3.occupancy        2926628194                       # Layer occupancy (ticks)
system.tol3bus.respLayer3.utilization             3.3                       # Layer utilization (%)

---------- End Simulation Statistics   ----------
