
---------- Begin Simulation Statistics ----------
sim_seconds                                  0.004696                       # Number of seconds simulated
sim_ticks                                  4696175457                       # Number of ticks simulated
final_tick                                 4696175457                       # Number of ticks from beginning of simulation (restored from checkpoints and never reset)
sim_freq                                 1000000000000                       # Frequency of simulated ticks
host_inst_rate                                 107875                       # Simulator instruction rate (inst/s)
host_op_rate                                   301784                       # Simulator op (including micro ops) rate (op/s)
host_tick_rate                               27227286                       # Simulator tick rate (ticks/s)
host_mem_usage                               33831784                       # Number of bytes of host memory used
host_seconds                                   172.48                       # Real time elapsed on the host
sim_insts                                    18606366                       # Number of instructions simulated
sim_ops                                      52051837                       # Number of ops (including micro ops) simulated
system.voltage_domain.voltage                       1                       # Voltage in Volts
system.clk_domain.clock                          1000                       # Clock period in ticks
system.mem_ctrls.pwrStateResidencyTicks::UNDEFINED   4696175457                       # Cumulative time (in ticks) in various power states
system.mem_ctrls.bytes_read::cpu0.inst          57088                       # Number of bytes read from this memory
system.mem_ctrls.bytes_read::cpu0.data        3620480                       # Number of bytes read from this memory
system.mem_ctrls.bytes_read::cpu1.inst          56832                       # Number of bytes read from this memory
system.mem_ctrls.bytes_read::cpu1.data        3629184                       # Number of bytes read from this memory
system.mem_ctrls.bytes_read::cpu2.inst          56768                       # Number of bytes read from this memory
system.mem_ctrls.bytes_read::cpu2.data        3604992                       # Number of bytes read from this memory
system.mem_ctrls.bytes_read::cpu3.inst          56384                       # Number of bytes read from this memory
system.mem_ctrls.bytes_read::cpu3.data        3581184                       # Number of bytes read from this memory
system.mem_ctrls.bytes_read::total           14662912                       # Number of bytes read from this memory
system.mem_ctrls.bytes_inst_read::cpu0.inst        57088                       # Number of instructions bytes read from this memory
system.mem_ctrls.bytes_inst_read::cpu1.inst        56832                       # Number of instructions bytes read from this memory
system.mem_ctrls.bytes_inst_read::cpu2.inst        56768                       # Number of instructions bytes read from this memory
system.mem_ctrls.bytes_inst_read::cpu3.inst        56384                       # Number of instructions bytes read from this memory
system.mem_ctrls.bytes_inst_read::total        227072                       # Number of instructions bytes read from this memory
system.mem_ctrls.bytes_written::writebacks       878080                       # Number of bytes written to this memory
system.mem_ctrls.bytes_written::total          878080                       # Number of bytes written to this memory
system.mem_ctrls.num_reads::cpu0.inst             892                       # Number of read requests responded to by this memory
system.mem_ctrls.num_reads::cpu0.data           56570                       # Number of read requests responded to by this memory
system.mem_ctrls.num_reads::cpu1.inst             888                       # Number of read requests responded to by this memory
system.mem_ctrls.num_reads::cpu1.data           56706                       # Number of read requests responded to by this memory
system.mem_ctrls.num_reads::cpu2.inst             887                       # Number of read requests responded to by this memory
system.mem_ctrls.num_reads::cpu2.data           56328                       # Number of read requests responded to by this memory
system.mem_ctrls.num_reads::cpu3.inst             881                       # Number of read requests responded to by this memory
system.mem_ctrls.num_reads::cpu3.data           55956                       # Number of read requests responded to by this memory
system.mem_ctrls.num_reads::total              229108                       # Number of read requests responded to by this memory
system.mem_ctrls.num_writes::writebacks         13720                       # Number of write requests responded to by this memory
system.mem_ctrls.num_writes::total              13720                       # Number of write requests responded to by this memory
system.mem_ctrls.bw_read::cpu0.inst          12156275                       # Total read bandwidth from this memory (bytes/s)
system.mem_ctrls.bw_read::cpu0.data         770942234                       # Total read bandwidth from this memory (bytes/s)
system.mem_ctrls.bw_read::cpu1.inst          12101762                       # Total read bandwidth from this memory (bytes/s)
system.mem_ctrls.bw_read::cpu1.data         772795657                       # Total read bandwidth from this memory (bytes/s)
system.mem_ctrls.bw_read::cpu2.inst          12088134                       # Total read bandwidth from this memory (bytes/s)
system.mem_ctrls.bw_read::cpu2.data         767644232                       # Total read bandwidth from this memory (bytes/s)
system.mem_ctrls.bw_read::cpu3.inst          12006366                       # Total read bandwidth from this memory (bytes/s)
system.mem_ctrls.bw_read::cpu3.data         762574574                       # Total read bandwidth from this memory (bytes/s)
system.mem_ctrls.bw_read::total            3122309235                       # Total read bandwidth from this memory (bytes/s)
system.mem_ctrls.bw_inst_read::cpu0.inst     12156275                       # Instruction read bandwidth from this memory (bytes/s)
system.mem_ctrls.bw_inst_read::cpu1.inst     12101762                       # Instruction read bandwidth from this memory (bytes/s)
system.mem_ctrls.bw_inst_read::cpu2.inst     12088134                       # Instruction read bandwidth from this memory (bytes/s)
system.mem_ctrls.bw_inst_read::cpu3.inst     12006366                       # Instruction read bandwidth from this memory (bytes/s)
system.mem_ctrls.bw_inst_read::total         48352538                       # Instruction read bandwidth from this memory (bytes/s)
system.mem_ctrls.bw_write::writebacks       186977682                       # Write bandwidth from this memory (bytes/s)
system.mem_ctrls.bw_write::total            186977682                       # Write bandwidth from this memory (bytes/s)
system.mem_ctrls.bw_total::writebacks       186977682                       # Total bandwidth to/from this memory (bytes/s)
system.mem_ctrls.bw_total::cpu0.inst         12156275                       # Total bandwidth to/from this memory (bytes/s)
system.mem_ctrls.bw_total::cpu0.data        770942234                       # Total bandwidth to/from this memory (bytes/s)
system.mem_ctrls.bw_total::cpu1.inst         12101762                       # Total bandwidth to/from this memory (bytes/s)
system.mem_ctrls.bw_total::cpu1.data        772795657                       # Total bandwidth to/from this memory (bytes/s)
system.mem_ctrls.bw_total::cpu2.inst         12088134                       # Total bandwidth to/from this memory (bytes/s)
system.mem_ctrls.bw_total::cpu2.data        767644232                       # Total bandwidth to/from this memory (bytes/s)
system.mem_ctrls.bw_total::cpu3.inst         12006366                       # Total bandwidth to/from this memory (bytes/s)
system.mem_ctrls.bw_total::cpu3.data        762574574                       # Total bandwidth to/from this memory (bytes/s)
system.mem_ctrls.bw_total::total           3309286917                       # Total bandwidth to/from this memory (bytes/s)
system.pwrStateResidencyTicks::UNDEFINED   4696175457                       # Cumulative time (in ticks) in various power states
system.cpu0.branchPred.lookups                 855550                       # Number of BP lookups
system.cpu0.branchPred.condPredicted           855550                       # Number of conditional branches predicted
system.cpu0.branchPred.condIncorrect             3662                       # Number of conditional branches incorrect
system.cpu0.branchPred.BTBLookups              732743                       # Number of BTB lookups
system.cpu0.branchPred.BTBHits                      0                       # Number of BTB hits
system.cpu0.branchPred.BTBCorrect                   0                       # Number of correct BTB predictions (this stat may not work properly.
system.cpu0.branchPred.BTBHitPct             0.000000                       # BTB Hit Percentage
system.cpu0.branchPred.usedRAS                  86347                       # Number of times the RAS was used to get a target.
system.cpu0.branchPred.RASInCorrect               458                       # Number of incorrect RAS predictions.
system.cpu0.branchPred.indirectLookups         732743                       # Number of indirect predictor lookups.
system.cpu0.branchPred.indirectHits            317131                       # Number of indirect target hits.
system.cpu0.branchPred.indirectMisses          415612                       # Number of indirect misses.
system.cpu0.branchPredindirectMispredicted         2657                       # Number of mispredicted indirect branches.
system.cpu_voltage_domain.voltage                   1                       # Voltage in Volts
system.cpu_clk_domain.clock                       333                       # Clock period in ticks
system.cpu0.dtb.walker.pwrStateResidencyTicks::UNDEFINED   4696175457                       # Cumulative time (in ticks) in various power states
system.cpu0.dtb.rdAccesses                    1497870                       # TLB accesses on read requests
system.cpu0.dtb.wrAccesses                     748348                       # TLB accesses on write requests
system.cpu0.dtb.rdMisses                        23609                       # TLB misses on read requests
system.cpu0.dtb.wrMisses                         1200                       # TLB misses on write requests
system.cpu0.apic_clk_domain.clock                5328                       # Clock period in ticks
system.cpu0.interrupts.pwrStateResidencyTicks::UNDEFINED   4696175457                       # Cumulative time (in ticks) in various power states
system.cpu0.itb.walker.pwrStateResidencyTicks::UNDEFINED   4696175457                       # Cumulative time (in ticks) in various power states
system.cpu0.itb.rdAccesses                          0                       # TLB accesses on read requests
system.cpu0.itb.wrAccesses                     579313                       # TLB accesses on write requests
system.cpu0.itb.rdMisses                            0                       # TLB misses on read requests
system.cpu0.itb.wrMisses                          170                       # TLB misses on write requests
system.cpu0.workload.numSyscalls                   31                       # Number of system calls
system.cpu0.pwrStateResidencyTicks::ON     4696175457                       # Cumulative time (in ticks) in various power states
system.cpu0.numCycles                        14102630                       # number of cpu cycles simulated
system.cpu0.numWorkItemsStarted                     0                       # number of work items this cpu started
system.cpu0.numWorkItemsCompleted                   0                       # number of work items this cpu completed
system.cpu0.fetch.icacheStallCycles            608031                       # Number of cycles fetch is stalled on an Icache miss
system.cpu0.fetch.Insts                       4755815                       # Number of instructions fetch has processed
system.cpu0.fetch.Branches                     855550                       # Number of branches that fetch encountered
system.cpu0.fetch.predictedBranches            403478                       # Number of branches that fetch has predicted taken
system.cpu0.fetch.Cycles                     13413228                       # Number of cycles fetch has run and was not squashing or blocked
system.cpu0.fetch.SquashCycles                   7704                       # Number of cycles fetch has spent squashing
system.cpu0.fetch.MiscStallCycles                 151                       # Number of cycles fetch has spent waiting on interrupts, or bad addresses, or out of MSHRs
system.cpu0.fetch.PendingTrapStallCycles          513                       # Number of stall cycles due to pending traps
system.cpu0.fetch.PendingQuiesceStallCycles            6                       # Number of stall cycles due to pending quiesce instructions
system.cpu0.fetch.IcacheWaitRetryStallCycles          107                       # Number of stall cycles due to full MSHR
system.cpu0.fetch.CacheLines                   579209                       # Number of cache lines fetched
system.cpu0.fetch.IcacheSquashes                 1347                       # Number of outstanding Icache misses that were squashed
system.cpu0.fetch.rateDist::samples          14025888                       # Number of instructions fetched each cycle (Total)
system.cpu0.fetch.rateDist::mean             0.943760                       # Number of instructions fetched each cycle (Total)
system.cpu0.fetch.rateDist::stdev            2.439436                       # Number of instructions fetched each cycle (Total)
system.cpu0.fetch.rateDist::underflows              0      0.00%      0.00% # Number of instructions fetched each cycle (Total)
system.cpu0.fetch.rateDist::0                11935535     85.10%     85.10% # Number of instructions fetched each cycle (Total)
system.cpu0.fetch.rateDist::1                  118934      0.85%     85.94% # Number of instructions fetched each cycle (Total)
system.cpu0.fetch.rateDist::2                  161910      1.15%     87.10% # Number of instructions fetched each cycle (Total)
system.cpu0.fetch.rateDist::3                  110351      0.79%     87.89% # Number of instructions fetched each cycle (Total)
system.cpu0.fetch.rateDist::4                  142961      1.02%     88.90% # Number of instructions fetched each cycle (Total)
system.cpu0.fetch.rateDist::5                   76953      0.55%     89.45% # Number of instructions fetched each cycle (Total)
system.cpu0.fetch.rateDist::6                  112695      0.80%     90.26% # Number of instructions fetched each cycle (Total)
system.cpu0.fetch.rateDist::7                  101902      0.73%     90.98% # Number of instructions fetched each cycle (Total)
system.cpu0.fetch.rateDist::8                 1264647      9.02%    100.00% # Number of instructions fetched each cycle (Total)
system.cpu0.fetch.rateDist::overflows               0      0.00%    100.00% # Number of instructions fetched each cycle (Total)
system.cpu0.fetch.rateDist::min_value               0                       # Number of instructions fetched each cycle (Total)
system.cpu0.fetch.rateDist::max_value               8                       # Number of instructions fetched each cycle (Total)
system.cpu0.fetch.rateDist::total            14025888                       # Number of instructions fetched each cycle (Total)
system.cpu0.fetch.branchRate                 0.060666                       # Number of branch fetches per cycle
system.cpu0.fetch.rate                       0.337229                       # Number of inst fetches per cycle
system.cpu0.decode.IdleCycles                  469469                       # Number of cycles decode is idle
system.cpu0.decode.BlockedCycles             11879190                       # Number of cycles decode is blocked
system.cpu0.decode.RunCycles                   594437                       # Number of cycles decode is running
system.cpu0.decode.UnblockCycles              1078940                       # Number of cycles decode is unblocking
system.cpu0.decode.SquashCycles                  3852                       # Number of cycles decode is squashing
system.cpu0.decode.DecodedInsts              13204796                       # Number of instructions handled by decode
system.cpu0.rename.SquashCycles                  3852                       # Number of cycles rename is squashing
system.cpu0.rename.IdleCycles                  857491                       # Number of cycles rename is idle
system.cpu0.rename.BlockCycles                8354769                       # Number of cycles rename is blocking
system.cpu0.rename.serializeStallCycles          4015                       # count of cycles rename stalled for serializing inst
system.cpu0.rename.RunCycles                  1275091                       # Number of cycles rename is running
system.cpu0.rename.UnblockCycles              3530670                       # Number of cycles rename is unblocking
system.cpu0.rename.RenamedInsts              13189127                       # Number of instructions processed by rename
system.cpu0.rename.ROBFullEvents                  426                       # Number of times rename has blocked due to ROB full
system.cpu0.rename.IQFullEvents               1999254                       # Number of times rename has blocked due to IQ full
system.cpu0.rename.LQFullEvents                   121                       # Number of times rename has blocked due to LQ full
system.cpu0.rename.SQFullEvents               1319892                       # Number of times rename has blocked due to SQ full
system.cpu0.rename.RenamedOperands           17990960                       # Number of destination operands rename has renamed
system.cpu0.rename.RenameLookups             42602185                       # Number of register rename lookups that rename has made
system.cpu0.rename.int_rename_lookups        26994937                       # Number of integer rename lookups
system.cpu0.rename.fp_rename_lookups            52979                       # Number of floating rename lookups
system.cpu0.rename.CommittedMaps             17847648                       # Number of HB maps that are committed
system.cpu0.rename.UndoneMaps                  143178                       # Number of HB maps that are undone due to squashing
system.cpu0.rename.serializingInsts                93                       # count of serializing insts renamed
system.cpu0.rename.tempSerializingInsts            90                       # count of temporary serializing insts renamed
system.cpu0.rename.skidInsts                  5190693                       # count of insts added to the skid buffer
system.cpu0.memDep0.insertedLoads             1503129                       # Number of loads inserted to the mem dependence unit.
system.cpu0.memDep0.insertedStores             753723                       # Number of stores inserted to the mem dependence unit.
system.cpu0.memDep0.conflictingLoads           206256                       # Number of conflicting loads.
system.cpu0.memDep0.conflictingStores           72968                       # Number of conflicting stores.
system.cpu0.iq.iqInstsAdded                  13160051                       # Number of instructions added to the IQ (excludes non-spec)
system.cpu0.iq.iqNonSpecInstsAdded               1148                       # Number of non-speculative instructions added to the IQ
system.cpu0.iq.iqInstsIssued                 13124738                       # Number of instructions issued
system.cpu0.iq.iqSquashedInstsIssued             1170                       # Number of squashed instructions issued
system.cpu0.iq.iqSquashedInstsExamined         100021                       # Number of squashed instructions iterated over during squash; mainly for profiling
system.cpu0.iq.iqSquashedOperandsExamined       147416                       # Number of squashed operands that are examined and possibly removed from graph
system.cpu0.iq.iqSquashedNonSpecRemoved           841                       # Number of squashed non-spec instructions that were removed
system.cpu0.iq.issued_per_cycle::samples     14025888                       # Number of insts issued each cycle
system.cpu0.iq.issued_per_cycle::mean        0.935751                       # Number of insts issued each cycle
system.cpu0.iq.issued_per_cycle::stdev       1.707935                       # Number of insts issued each cycle
system.cpu0.iq.issued_per_cycle::underflows            0      0.00%      0.00% # Number of insts issued each cycle
system.cpu0.iq.issued_per_cycle::0            9587334     68.35%     68.35% # Number of insts issued each cycle
system.cpu0.iq.issued_per_cycle::1            1009034      7.19%     75.55% # Number of insts issued each cycle
system.cpu0.iq.issued_per_cycle::2            1135156      8.09%     83.64% # Number of insts issued each cycle
system.cpu0.iq.issued_per_cycle::3            1002779      7.15%     90.79% # Number of insts issued each cycle
system.cpu0.iq.issued_per_cycle::4             527137      3.76%     94.55% # Number of insts issued each cycle
system.cpu0.iq.issued_per_cycle::5             277843      1.98%     96.53% # Number of insts issued each cycle
system.cpu0.iq.issued_per_cycle::6             200576      1.43%     97.96% # Number of insts issued each cycle
system.cpu0.iq.issued_per_cycle::7             152396      1.09%     99.05% # Number of insts issued each cycle
system.cpu0.iq.issued_per_cycle::8             133633      0.95%    100.00% # Number of insts issued each cycle
system.cpu0.iq.issued_per_cycle::overflows            0      0.00%    100.00% # Number of insts issued each cycle
system.cpu0.iq.issued_per_cycle::min_value            0                       # Number of insts issued each cycle
system.cpu0.iq.issued_per_cycle::max_value            8                       # Number of insts issued each cycle
system.cpu0.iq.issued_per_cycle::total       14025888                       # Number of insts issued each cycle
system.cpu0.iq.fu_full::No_OpClass                  0      0.00%      0.00% # attempts to use FU when none available
system.cpu0.iq.fu_full::IntAlu                  59901     51.97%     51.97% # attempts to use FU when none available
system.cpu0.iq.fu_full::IntMult                     0      0.00%     51.97% # attempts to use FU when none available
system.cpu0.iq.fu_full::IntDiv                      0      0.00%     51.97% # attempts to use FU when none available
system.cpu0.iq.fu_full::FloatAdd                   17      0.01%     51.98% # attempts to use FU when none available
system.cpu0.iq.fu_full::FloatCmp                    0      0.00%     51.98% # attempts to use FU when none available
system.cpu0.iq.fu_full::FloatCvt                    0      0.00%     51.98% # attempts to use FU when none available
system.cpu0.iq.fu_full::FloatMult                   0      0.00%     51.98% # attempts to use FU when none available
system.cpu0.iq.fu_full::FloatMultAcc                0      0.00%     51.98% # attempts to use FU when none available
system.cpu0.iq.fu_full::FloatDiv                    0      0.00%     51.98% # attempts to use FU when none available
system.cpu0.iq.fu_full::FloatMisc                   0      0.00%     51.98% # attempts to use FU when none available
system.cpu0.iq.fu_full::FloatSqrt                   0      0.00%     51.98% # attempts to use FU when none available
system.cpu0.iq.fu_full::SimdAdd                     0      0.00%     51.98% # attempts to use FU when none available
system.cpu0.iq.fu_full::SimdAddAcc                  0      0.00%     51.98% # attempts to use FU when none available
system.cpu0.iq.fu_full::SimdAlu                     0      0.00%     51.98% # attempts to use FU when none available
system.cpu0.iq.fu_full::SimdCmp                     0      0.00%     51.98% # attempts to use FU when none available
system.cpu0.iq.fu_full::SimdCvt                     0      0.00%     51.98% # attempts to use FU when none available
system.cpu0.iq.fu_full::SimdMisc                    0      0.00%     51.98% # attempts to use FU when none available
system.cpu0.iq.fu_full::SimdMult                    0      0.00%     51.98% # attempts to use FU when none available
system.cpu0.iq.fu_full::SimdMultAcc                 0      0.00%     51.98% # attempts to use FU when none available
system.cpu0.iq.fu_full::SimdShift                   0      0.00%     51.98% # attempts to use FU when none available
system.cpu0.iq.fu_full::SimdShiftAcc                0      0.00%     51.98% # attempts to use FU when none available
system.cpu0.iq.fu_full::SimdSqrt                    0      0.00%     51.98% # attempts to use FU when none available
system.cpu0.iq.fu_full::SimdFloatAdd                0      0.00%     51.98% # attempts to use FU when none available
system.cpu0.iq.fu_full::SimdFloatAlu                0      0.00%     51.98% # attempts to use FU when none available
system.cpu0.iq.fu_full::SimdFloatCmp                0      0.00%     51.98% # attempts to use FU when none available
system.cpu0.iq.fu_full::SimdFloatCvt                0      0.00%     51.98% # attempts to use FU when none available
system.cpu0.iq.fu_full::SimdFloatDiv                0      0.00%     51.98% # attempts to use FU when none available
system.cpu0.iq.fu_full::SimdFloatMisc               0      0.00%     51.98% # attempts to use FU when none available
system.cpu0.iq.fu_full::SimdFloatMult               0      0.00%     51.98% # attempts to use FU when none available
system.cpu0.iq.fu_full::SimdFloatMultAcc            0      0.00%     51.98% # attempts to use FU when none available
system.cpu0.iq.fu_full::SimdFloatSqrt               0      0.00%     51.98% # attempts to use FU when none available
system.cpu0.iq.fu_full::MemRead                 30998     26.89%     78.87% # attempts to use FU when none available
system.cpu0.iq.fu_full::MemWrite                24096     20.90%     99.78% # attempts to use FU when none available
system.cpu0.iq.fu_full::FloatMemRead               10      0.01%     99.79% # attempts to use FU when none available
system.cpu0.iq.fu_full::FloatMemWrite             245      0.21%    100.00% # attempts to use FU when none available
system.cpu0.iq.fu_full::IprAccess                   0      0.00%    100.00% # attempts to use FU when none available
system.cpu0.iq.fu_full::InstPrefetch                0      0.00%    100.00% # attempts to use FU when none available
system.cpu0.iq.FU_type_0::No_OpClass           185289      1.41%      1.41% # Type of FU issued
system.cpu0.iq.FU_type_0::IntAlu              9279599     70.70%     72.11% # Type of FU issued
system.cpu0.iq.FU_type_0::IntMult              125218      0.95%     73.07% # Type of FU issued
system.cpu0.iq.FU_type_0::IntDiv              1284765      9.79%     82.86% # Type of FU issued
system.cpu0.iq.FU_type_0::FloatAdd               1335      0.01%     82.87% # Type of FU issued
system.cpu0.iq.FU_type_0::FloatCmp                  0      0.00%     82.87% # Type of FU issued
system.cpu0.iq.FU_type_0::FloatCvt                  0      0.00%     82.87% # Type of FU issued
system.cpu0.iq.FU_type_0::FloatMult                 0      0.00%     82.87% # Type of FU issued
system.cpu0.iq.FU_type_0::FloatMultAcc              0      0.00%     82.87% # Type of FU issued
system.cpu0.iq.FU_type_0::FloatDiv                  0      0.00%     82.87% # Type of FU issued
system.cpu0.iq.FU_type_0::FloatMisc                 0      0.00%     82.87% # Type of FU issued
system.cpu0.iq.FU_type_0::FloatSqrt                 0      0.00%     82.87% # Type of FU issued
system.cpu0.iq.FU_type_0::SimdAdd                   0      0.00%     82.87% # Type of FU issued
system.cpu0.iq.FU_type_0::SimdAddAcc                0      0.00%     82.87% # Type of FU issued
system.cpu0.iq.FU_type_0::SimdAlu                   0      0.00%     82.87% # Type of FU issued
system.cpu0.iq.FU_type_0::SimdCmp                   0      0.00%     82.87% # Type of FU issued
system.cpu0.iq.FU_type_0::SimdCvt                   0      0.00%     82.87% # Type of FU issued
system.cpu0.iq.FU_type_0::SimdMisc                  0      0.00%     82.87% # Type of FU issued
system.cpu0.iq.FU_type_0::SimdMult                  0      0.00%     82.87% # Type of FU issued
system.cpu0.iq.FU_type_0::SimdMultAcc               0      0.00%     82.87% # Type of FU issued
system.cpu0.iq.FU_type_0::SimdShift                 0      0.00%     82.87% # Type of FU issued
system.cpu0.iq.FU_type_0::SimdShiftAcc              0      0.00%     82.87% # Type of FU issued
system.cpu0.iq.FU_type_0::SimdSqrt                  0      0.00%     82.87% # Type of FU issued
system.cpu0.iq.FU_type_0::SimdFloatAdd              0      0.00%     82.87% # Type of FU issued
system.cpu0.iq.FU_type_0::SimdFloatAlu              0      0.00%     82.87% # Type of FU issued
system.cpu0.iq.FU_type_0::SimdFloatCmp              0      0.00%     82.87% # Type of FU issued
system.cpu0.iq.FU_type_0::SimdFloatCvt              0      0.00%     82.87% # Type of FU issued
system.cpu0.iq.FU_type_0::SimdFloatDiv              0      0.00%     82.87% # Type of FU issued
system.cpu0.iq.FU_type_0::SimdFloatMisc             0      0.00%     82.87% # Type of FU issued
system.cpu0.iq.FU_type_0::SimdFloatMult             0      0.00%     82.87% # Type of FU issued
system.cpu0.iq.FU_type_0::SimdFloatMultAcc            0      0.00%     82.87% # Type of FU issued
system.cpu0.iq.FU_type_0::SimdFloatSqrt             0      0.00%     82.87% # Type of FU issued
system.cpu0.iq.FU_type_0::MemRead             1497008     11.41%     94.27% # Type of FU issued
system.cpu0.iq.FU_type_0::MemWrite             699554      5.33%     99.60% # Type of FU issued
system.cpu0.iq.FU_type_0::FloatMemRead           2289      0.02%     99.62% # Type of FU issued
system.cpu0.iq.FU_type_0::FloatMemWrite         49681      0.38%    100.00% # Type of FU issued
system.cpu0.iq.FU_type_0::IprAccess                 0      0.00%    100.00% # Type of FU issued
system.cpu0.iq.FU_type_0::InstPrefetch              0      0.00%    100.00% # Type of FU issued
system.cpu0.iq.FU_type_0::total              13124738                       # Type of FU issued
system.cpu0.iq.rate                          0.930659                       # Inst issue rate
system.cpu0.iq.fu_busy_cnt                     115267                       # FU busy when requested
system.cpu0.iq.fu_busy_rate                  0.008782                       # FU busy rate (busy events/executed inst)
system.cpu0.iq.int_inst_queue_reads          40284578                       # Number of integer instruction queue reads
system.cpu0.iq.int_inst_queue_writes         13206948                       # Number of integer instruction queue writes
system.cpu0.iq.int_inst_queue_wakeup_accesses     13060079                       # Number of integer instruction queue wakeup accesses
system.cpu0.iq.fp_inst_queue_reads             107222                       # Number of floating instruction queue reads
system.cpu0.iq.fp_inst_queue_writes             54421                       # Number of floating instruction queue writes
system.cpu0.iq.fp_inst_queue_wakeup_accesses        53324                       # Number of floating instruction queue wakeup accesses
system.cpu0.iq.vec_inst_queue_reads                 0                       # Number of vector instruction queue reads
system.cpu0.iq.vec_inst_queue_writes                0                       # Number of vector instruction queue writes
system.cpu0.iq.vec_inst_queue_wakeup_accesses            0                       # Number of vector instruction queue wakeup accesses
system.cpu0.iq.int_alu_accesses              13000998                       # Number of integer alu accesses
system.cpu0.iq.fp_alu_accesses                  53718                       # Number of floating point alu accesses
system.cpu0.iq.vec_alu_accesses                     0                       # Number of vector alu accesses
system.cpu0.iew.lsq.thread0.forwLoads          520987                       # Number of loads that had data forwarded from stores
system.cpu0.iew.lsq.thread0.invAddrLoads            0                       # Number of loads ignored due to an invalid address
system.cpu0.iew.lsq.thread0.squashedLoads        13054                       # Number of loads squashed
system.cpu0.iew.lsq.thread0.ignoredResponses           28                       # Number of memory responses ignored because the instruction is squashed
system.cpu0.iew.lsq.thread0.memOrderViolation          153                       # Number of memory ordering violations
system.cpu0.iew.lsq.thread0.squashedStores         8657                       # Number of stores squashed
system.cpu0.iew.lsq.thread0.invAddrSwpfs            0                       # Number of software prefetches ignored due to an invalid address
system.cpu0.iew.lsq.thread0.blockedLoads            0                       # Number of blocked loads due to partial load-store forwarding
system.cpu0.iew.lsq.thread0.rescheduledLoads           26                       # Number of loads that were rescheduled
system.cpu0.iew.lsq.thread0.cacheBlocked           29                       # Number of times an access to memory failed due to the cache being blocked
system.cpu0.iew.iewIdleCycles                       0                       # Number of cycles IEW is idle
system.cpu0.iew.iewSquashCycles                  3852                       # Number of cycles IEW is squashing
system.cpu0.iew.iewBlockCycles                7571145                       # Number of cycles IEW is blocking
system.cpu0.iew.iewUnblockCycles               568536                       # Number of cycles IEW is unblocking
system.cpu0.iew.iewDispatchedInsts           13161199                       # Number of instructions dispatched to IQ
system.cpu0.iew.iewDispSquashedInsts              206                       # Number of squashed instructions skipped by dispatch
system.cpu0.iew.iewDispLoadInsts              1503129                       # Number of dispatched load instructions
system.cpu0.iew.iewDispStoreInsts              753723                       # Number of dispatched store instructions
system.cpu0.iew.iewDispNonSpecInsts               440                       # Number of dispatched non-speculative instructions
system.cpu0.iew.iewIQFullEvents                 32780                       # Number of times the IQ has become full, causing a stall
system.cpu0.iew.iewLSQFullEvents               499113                       # Number of times the LSQ has become full, causing a stall
system.cpu0.iew.memOrderViolationEvents           153                       # Number of memory order violations
system.cpu0.iew.predictedTakenIncorrect           892                       # Number of branches that were predicted taken incorrectly
system.cpu0.iew.predictedNotTakenIncorrect         3886                       # Number of branches that were predicted not taken incorrectly
system.cpu0.iew.branchMispredicts                4778                       # Number of branch mispredicts detected at execute
system.cpu0.iew.iewExecutedInsts             13116865                       # Number of executed instructions
system.cpu0.iew.iewExecLoadInsts              1497825                       # Number of load instructions executed
system.cpu0.iew.iewExecSquashedInsts             7872                       # Number of squashed instructions skipped in execute
system.cpu0.iew.exec_swp                            0                       # number of swp insts executed
system.cpu0.iew.exec_nop                            0                       # number of nop insts executed
system.cpu0.iew.exec_refs                     2246161                       # number of memory reference insts executed
system.cpu0.iew.exec_branches                  841974                       # Number of branches executed
system.cpu0.iew.exec_stores                    748336                       # Number of stores executed
system.cpu0.iew.exec_rate                    0.930101                       # Inst execution rate
system.cpu0.iew.wb_sent                      13114882                       # cumulative count of insts sent to commit
system.cpu0.iew.wb_count                     13113403                       # cumulative count of insts written-back
system.cpu0.iew.wb_producers                 10386265                       # num instructions producing a value
system.cpu0.iew.wb_consumers                 27637109                       # num instructions consuming a value
system.cpu0.iew.wb_rate                      0.929855                       # insts written-back per cycle
system.cpu0.iew.wb_fanout                    0.375809                       # average fanout of values written-back
system.cpu0.commit.commitSquashedInsts         100078                       # The number of squashed insts skipped by commit
system.cpu0.commit.commitNonSpecStalls            307                       # The number of times commit has been forced to stall to communicate backwards
system.cpu0.commit.branchMispredicts             3726                       # The number of times a branch was mispredicted
system.cpu0.commit.committed_per_cycle::samples     14010238                       # Number of insts commited each cycle
system.cpu0.commit.committed_per_cycle::mean     0.932255                       # Number of insts commited each cycle
system.cpu0.commit.committed_per_cycle::stdev     2.089808                       # Number of insts commited each cycle
system.cpu0.commit.committed_per_cycle::underflows            0      0.00%      0.00% # Number of insts commited each cycle
system.cpu0.commit.committed_per_cycle::0      9788399     69.87%     69.87% # Number of insts commited each cycle
system.cpu0.commit.committed_per_cycle::1      2315605     16.53%     86.39% # Number of insts commited each cycle
system.cpu0.commit.committed_per_cycle::2       288859      2.06%     88.46% # Number of insts commited each cycle
system.cpu0.commit.committed_per_cycle::3       231091      1.65%     90.11% # Number of insts commited each cycle
system.cpu0.commit.committed_per_cycle::4       136037      0.97%     91.08% # Number of insts commited each cycle
system.cpu0.commit.committed_per_cycle::5       240972      1.72%     92.80% # Number of insts commited each cycle
system.cpu0.commit.committed_per_cycle::6       124105      0.89%     93.68% # Number of insts commited each cycle
system.cpu0.commit.committed_per_cycle::7       100484      0.72%     94.40% # Number of insts commited each cycle
system.cpu0.commit.committed_per_cycle::8       784686      5.60%    100.00% # Number of insts commited each cycle
system.cpu0.commit.committed_per_cycle::overflows            0      0.00%    100.00% # Number of insts commited each cycle
system.cpu0.commit.committed_per_cycle::min_value            0                       # Number of insts commited each cycle
system.cpu0.commit.committed_per_cycle::max_value            8                       # Number of insts commited each cycle
system.cpu0.commit.committed_per_cycle::total     14010238                       # Number of insts commited each cycle
system.cpu0.commit.committedInsts             4667284                       # Number of instructions committed
system.cpu0.commit.committedOps              13061110                       # Number of ops (including micro ops) committed
system.cpu0.commit.swp_count                        0                       # Number of s/w prefetches committed
system.cpu0.commit.refs                       2235139                       # Number of memory references committed
system.cpu0.commit.loads                      1490073                       # Number of loads committed
system.cpu0.commit.membars                        184                       # Number of memory barriers committed
system.cpu0.commit.branches                    837885                       # Number of branches committed
system.cpu0.commit.vec_insts                        0                       # Number of committed Vector instructions.
system.cpu0.commit.fp_insts                     52977                       # Number of committed floating point instructions.
system.cpu0.commit.int_insts                 12875766                       # Number of committed integer instructions.
system.cpu0.commit.function_calls               85199                       # Number of function calls committed.
system.cpu0.commit.op_class_0::No_OpClass       184022      1.41%      1.41% # Class of committed instruction
system.cpu0.commit.op_class_0::IntAlu         9231044     70.68%     72.08% # Class of committed instruction
system.cpu0.commit.op_class_0::IntMult         124993      0.96%     73.04% # Class of committed instruction
system.cpu0.commit.op_class_0::IntDiv         1284724      9.84%     82.88% # Class of committed instruction
system.cpu0.commit.op_class_0::FloatAdd          1188      0.01%     82.89% # Class of committed instruction
system.cpu0.commit.op_class_0::FloatCmp             0      0.00%     82.89% # Class of committed instruction
system.cpu0.commit.op_class_0::FloatCvt             0      0.00%     82.89% # Class of committed instruction
system.cpu0.commit.op_class_0::FloatMult            0      0.00%     82.89% # Class of committed instruction
system.cpu0.commit.op_class_0::FloatMultAcc            0      0.00%     82.89% # Class of committed instruction
system.cpu0.commit.op_class_0::FloatDiv             0      0.00%     82.89% # Class of committed instruction
system.cpu0.commit.op_class_0::FloatMisc            0      0.00%     82.89% # Class of committed instruction
system.cpu0.commit.op_class_0::FloatSqrt            0      0.00%     82.89% # Class of committed instruction
system.cpu0.commit.op_class_0::SimdAdd              0      0.00%     82.89% # Class of committed instruction
system.cpu0.commit.op_class_0::SimdAddAcc            0      0.00%     82.89% # Class of committed instruction
system.cpu0.commit.op_class_0::SimdAlu              0      0.00%     82.89% # Class of committed instruction
system.cpu0.commit.op_class_0::SimdCmp              0      0.00%     82.89% # Class of committed instruction
system.cpu0.commit.op_class_0::SimdCvt              0      0.00%     82.89% # Class of committed instruction
system.cpu0.commit.op_class_0::SimdMisc             0      0.00%     82.89% # Class of committed instruction
system.cpu0.commit.op_class_0::SimdMult             0      0.00%     82.89% # Class of committed instruction
system.cpu0.commit.op_class_0::SimdMultAcc            0      0.00%     82.89% # Class of committed instruction
system.cpu0.commit.op_class_0::SimdShift            0      0.00%     82.89% # Class of committed instruction
system.cpu0.commit.op_class_0::SimdShiftAcc            0      0.00%     82.89% # Class of committed instruction
system.cpu0.commit.op_class_0::SimdSqrt             0      0.00%     82.89% # Class of committed instruction
system.cpu0.commit.op_class_0::SimdFloatAdd            0      0.00%     82.89% # Class of committed instruction
system.cpu0.commit.op_class_0::SimdFloatAlu            0      0.00%     82.89% # Class of committed instruction
system.cpu0.commit.op_class_0::SimdFloatCmp            0      0.00%     82.89% # Class of committed instruction
system.cpu0.commit.op_class_0::SimdFloatCvt            0      0.00%     82.89% # Class of committed instruction
system.cpu0.commit.op_class_0::SimdFloatDiv            0      0.00%     82.89% # Class of committed instruction
system.cpu0.commit.op_class_0::SimdFloatMisc            0      0.00%     82.89% # Class of committed instruction
system.cpu0.commit.op_class_0::SimdFloatMult            0      0.00%     82.89% # Class of committed instruction
system.cpu0.commit.op_class_0::SimdFloatMultAcc            0      0.00%     82.89% # Class of committed instruction
system.cpu0.commit.op_class_0::SimdFloatSqrt            0      0.00%     82.89% # Class of committed instruction
system.cpu0.commit.op_class_0::MemRead        1487916     11.39%     94.28% # Class of committed instruction
system.cpu0.commit.op_class_0::MemWrite        695569      5.33%     99.60% # Class of committed instruction
system.cpu0.commit.op_class_0::FloatMemRead         2157      0.02%     99.62% # Class of committed instruction
system.cpu0.commit.op_class_0::FloatMemWrite        49497      0.38%    100.00% # Class of committed instruction
system.cpu0.commit.op_class_0::IprAccess            0      0.00%    100.00% # Class of committed instruction
system.cpu0.commit.op_class_0::InstPrefetch            0      0.00%    100.00% # Class of committed instruction
system.cpu0.commit.op_class_0::total         13061110                       # Class of committed instruction
system.cpu0.commit.bw_lim_events               784686                       # number cycles where commit BW limit reached
system.cpu0.rob.rob_reads                    26386740                       # The number of ROB reads
system.cpu0.rob.rob_writes                   26338422                       # The number of ROB writes
system.cpu0.timesIdled                            505                       # Number of times that the entire CPU went into an idle state and unscheduled itself
system.cpu0.idleCycles                          76742                       # Total number of cycles that the CPU has spent unscheduled due to idling
system.cpu0.committedInsts                    4667284                       # Number of Instructions Simulated
system.cpu0.committedOps                     13061110                       # Number of Ops (including micro ops) Simulated
system.cpu0.cpi                              3.021592                       # CPI: Cycles Per Instruction
system.cpu0.cpi_total                        3.021592                       # CPI: Total CPI of All Threads
system.cpu0.ipc                              0.330951                       # IPC: Instructions Per Cycle
system.cpu0.ipc_total                        0.330951                       # IPC: Total IPC of All Threads
system.cpu0.int_regfile_reads                26863515                       # number of integer regfile reads
system.cpu0.int_regfile_writes               14213557                       # number of integer regfile writes
system.cpu0.fp_regfile_reads                    52436                       # number of floating regfile reads
system.cpu0.fp_regfile_writes                    3544                       # number of floating regfile writes
system.cpu0.cc_regfile_reads                 11673580                       # number of cc regfile reads
system.cpu0.cc_regfile_writes                 3687051                       # number of cc regfile writes
system.cpu0.misc_regfile_reads                3798905                       # number of misc regfile reads
system.cpu0.dcache.tags.pwrStateResidencyTicks::UNDEFINED   4696175457                       # Cumulative time (in ticks) in various power states
system.cpu0.dcache.tags.replacements            56143                       # number of replacements
system.cpu0.dcache.tags.tagsinuse          508.241598                       # Cycle average of tags in use
system.cpu0.dcache.tags.total_refs            1525654                       # Total number of references to valid blocks.
system.cpu0.dcache.tags.sampled_refs            56655                       # Sample count of references to valid blocks.
system.cpu0.dcache.tags.avg_refs            26.928850                       # Average number of references to valid blocks.
system.cpu0.dcache.tags.warmup_cycle           150183                       # Cycle when the warmup percentage was hit.
system.cpu0.dcache.tags.occ_blocks::cpu0.data   508.241598                       # Average occupied blocks per requestor
system.cpu0.dcache.tags.occ_percent::cpu0.data     0.992659                       # Average percentage of cache occupancy
system.cpu0.dcache.tags.occ_percent::total     0.992659                       # Average percentage of cache occupancy
system.cpu0.dcache.tags.occ_task_id_blocks::1024          512                       # Occupied blocks per task id
system.cpu0.dcache.tags.age_task_id_blocks_1024::0           16                       # Occupied blocks per task id
system.cpu0.dcache.tags.age_task_id_blocks_1024::2          460                       # Occupied blocks per task id
system.cpu0.dcache.tags.age_task_id_blocks_1024::3           36                       # Occupied blocks per task id
system.cpu0.dcache.tags.occ_task_id_percent::1024            1                       # Percentage of cache occupancy per task id
system.cpu0.dcache.tags.tag_accesses         13829231                       # Number of tag accesses
system.cpu0.dcache.tags.data_accesses        13829231                       # Number of data accesses
system.cpu0.dcache.pwrStateResidencyTicks::UNDEFINED   4696175457                       # Cumulative time (in ticks) in various power states
system.cpu0.dcache.ReadReq_hits::cpu0.data       790691                       # number of ReadReq hits
system.cpu0.dcache.ReadReq_hits::total         790691                       # number of ReadReq hits
system.cpu0.dcache.WriteReq_hits::cpu0.data       734953                       # number of WriteReq hits
system.cpu0.dcache.WriteReq_hits::total        734953                       # number of WriteReq hits
system.cpu0.dcache.demand_hits::cpu0.data      1525644                       # number of demand (read+write) hits
system.cpu0.dcache.demand_hits::total         1525644                       # number of demand (read+write) hits
system.cpu0.dcache.overall_hits::cpu0.data      1525644                       # number of overall hits
system.cpu0.dcache.overall_hits::total        1525644                       # number of overall hits
system.cpu0.dcache.ReadReq_misses::cpu0.data       185817                       # number of ReadReq misses
system.cpu0.dcache.ReadReq_misses::total       185817                       # number of ReadReq misses
system.cpu0.dcache.WriteReq_misses::cpu0.data        10111                       # number of WriteReq misses
system.cpu0.dcache.WriteReq_misses::total        10111                       # number of WriteReq misses
system.cpu0.dcache.demand_misses::cpu0.data       195928                       # number of demand (read+write) misses
system.cpu0.dcache.demand_misses::total        195928                       # number of demand (read+write) misses
system.cpu0.dcache.overall_misses::cpu0.data       195928                       # number of overall misses
system.cpu0.dcache.overall_misses::total       195928                       # number of overall misses
system.cpu0.dcache.ReadReq_miss_latency::cpu0.data  12126482712                       # number of ReadReq miss cycles
system.cpu0.dcache.ReadReq_miss_latency::total  12126482712                       # number of ReadReq miss cycles
system.cpu0.dcache.WriteReq_miss_latency::cpu0.data    671787872                       # number of WriteReq miss cycles
system.cpu0.dcache.WriteReq_miss_latency::total    671787872                       # number of WriteReq miss cycles
system.cpu0.dcache.demand_miss_latency::cpu0.data  12798270584                       # number of demand (read+write) miss cycles
system.cpu0.dcache.demand_miss_latency::total  12798270584                       # number of demand (read+write) miss cycles
system.cpu0.dcache.overall_miss_latency::cpu0.data  12798270584                       # number of overall miss cycles
system.cpu0.dcache.overall_miss_latency::total  12798270584                       # number of overall miss cycles
system.cpu0.dcache.ReadReq_accesses::cpu0.data       976508                       # number of ReadReq accesses(hits+misses)
system.cpu0.dcache.ReadReq_accesses::total       976508                       # number of ReadReq accesses(hits+misses)
system.cpu0.dcache.WriteReq_accesses::cpu0.data       745064                       # number of WriteReq accesses(hits+misses)
system.cpu0.dcache.WriteReq_accesses::total       745064                       # number of WriteReq accesses(hits+misses)
system.cpu0.dcache.demand_accesses::cpu0.data      1721572                       # number of demand (read+write) accesses
system.cpu0.dcache.demand_accesses::total      1721572                       # number of demand (read+write) accesses
system.cpu0.dcache.overall_accesses::cpu0.data      1721572                       # number of overall (read+write) accesses
system.cpu0.dcache.overall_accesses::total      1721572                       # number of overall (read+write) accesses
system.cpu0.dcache.ReadReq_miss_rate::cpu0.data     0.190287                       # miss rate for ReadReq accesses
system.cpu0.dcache.ReadReq_miss_rate::total     0.190287                       # miss rate for ReadReq accesses
system.cpu0.dcache.WriteReq_miss_rate::cpu0.data     0.013571                       # miss rate for WriteReq accesses
system.cpu0.dcache.WriteReq_miss_rate::total     0.013571                       # miss rate for WriteReq accesses
system.cpu0.dcache.demand_miss_rate::cpu0.data     0.113808                       # miss rate for demand accesses
system.cpu0.dcache.demand_miss_rate::total     0.113808                       # miss rate for demand accesses
system.cpu0.dcache.overall_miss_rate::cpu0.data     0.113808                       # miss rate for overall accesses
system.cpu0.dcache.overall_miss_rate::total     0.113808                       # miss rate for overall accesses
system.cpu0.dcache.ReadReq_avg_miss_latency::cpu0.data 65260.351378                       # average ReadReq miss latency
system.cpu0.dcache.ReadReq_avg_miss_latency::total 65260.351378                       # average ReadReq miss latency
system.cpu0.dcache.WriteReq_avg_miss_latency::cpu0.data 66441.288893                       # average WriteReq miss latency
system.cpu0.dcache.WriteReq_avg_miss_latency::total 66441.288893                       # average WriteReq miss latency
system.cpu0.dcache.demand_avg_miss_latency::cpu0.data 65321.294476                       # average overall miss latency
system.cpu0.dcache.demand_avg_miss_latency::total 65321.294476                       # average overall miss latency
system.cpu0.dcache.overall_avg_miss_latency::cpu0.data 65321.294476                       # average overall miss latency
system.cpu0.dcache.overall_avg_miss_latency::total 65321.294476                       # average overall miss latency
system.cpu0.dcache.blocked_cycles::no_mshrs          986                       # number of cycles access was blocked
system.cpu0.dcache.blocked_cycles::no_targets            0                       # number of cycles access was blocked
system.cpu0.dcache.blocked::no_mshrs               10                       # number of cycles access was blocked
system.cpu0.dcache.blocked::no_targets              0                       # number of cycles access was blocked
system.cpu0.dcache.avg_blocked_cycles::no_mshrs    98.600000                       # average number of cycles each access was blocked
system.cpu0.dcache.avg_blocked_cycles::no_targets          nan                       # average number of cycles each access was blocked
system.cpu0.dcache.writebacks::writebacks         9695                       # number of writebacks
system.cpu0.dcache.writebacks::total             9695                       # number of writebacks
system.cpu0.dcache.ReadReq_mshr_hits::cpu0.data       139261                       # number of ReadReq MSHR hits
system.cpu0.dcache.ReadReq_mshr_hits::total       139261                       # number of ReadReq MSHR hits
system.cpu0.dcache.WriteReq_mshr_hits::cpu0.data            4                       # number of WriteReq MSHR hits
system.cpu0.dcache.WriteReq_mshr_hits::total            4                       # number of WriteReq MSHR hits
system.cpu0.dcache.demand_mshr_hits::cpu0.data       139265                       # number of demand (read+write) MSHR hits
system.cpu0.dcache.demand_mshr_hits::total       139265                       # number of demand (read+write) MSHR hits
system.cpu0.dcache.overall_mshr_hits::cpu0.data       139265                       # number of overall MSHR hits
system.cpu0.dcache.overall_mshr_hits::total       139265                       # number of overall MSHR hits
system.cpu0.dcache.ReadReq_mshr_misses::cpu0.data        46556                       # number of ReadReq MSHR misses
system.cpu0.dcache.ReadReq_mshr_misses::total        46556                       # number of ReadReq MSHR misses
system.cpu0.dcache.WriteReq_mshr_misses::cpu0.data        10107                       # number of WriteReq MSHR misses
system.cpu0.dcache.WriteReq_mshr_misses::total        10107                       # number of WriteReq MSHR misses
system.cpu0.dcache.demand_mshr_misses::cpu0.data        56663                       # number of demand (read+write) MSHR misses
system.cpu0.dcache.demand_mshr_misses::total        56663                       # number of demand (read+write) MSHR misses
system.cpu0.dcache.overall_mshr_misses::cpu0.data        56663                       # number of overall MSHR misses
system.cpu0.dcache.overall_mshr_misses::total        56663                       # number of overall MSHR misses
system.cpu0.dcache.ReadReq_mshr_miss_latency::cpu0.data   3063790809                       # number of ReadReq MSHR miss cycles
system.cpu0.dcache.ReadReq_mshr_miss_latency::total   3063790809                       # number of ReadReq MSHR miss cycles
system.cpu0.dcache.WriteReq_mshr_miss_latency::cpu0.data    664794540                       # number of WriteReq MSHR miss cycles
system.cpu0.dcache.WriteReq_mshr_miss_latency::total    664794540                       # number of WriteReq MSHR miss cycles
system.cpu0.dcache.demand_mshr_miss_latency::cpu0.data   3728585349                       # number of demand (read+write) MSHR miss cycles
system.cpu0.dcache.demand_mshr_miss_latency::total   3728585349                       # number of demand (read+write) MSHR miss cycles
system.cpu0.dcache.overall_mshr_miss_latency::cpu0.data   3728585349                       # number of overall MSHR miss cycles
system.cpu0.dcache.overall_mshr_miss_latency::total   3728585349                       # number of overall MSHR miss cycles
system.cpu0.dcache.ReadReq_mshr_miss_rate::cpu0.data     0.047676                       # mshr miss rate for ReadReq accesses
system.cpu0.dcache.ReadReq_mshr_miss_rate::total     0.047676                       # mshr miss rate for ReadReq accesses
system.cpu0.dcache.WriteReq_mshr_miss_rate::cpu0.data     0.013565                       # mshr miss rate for WriteReq accesses
system.cpu0.dcache.WriteReq_mshr_miss_rate::total     0.013565                       # mshr miss rate for WriteReq accesses
system.cpu0.dcache.demand_mshr_miss_rate::cpu0.data     0.032914                       # mshr miss rate for demand accesses
system.cpu0.dcache.demand_mshr_miss_rate::total     0.032914                       # mshr miss rate for demand accesses
system.cpu0.dcache.overall_mshr_miss_rate::cpu0.data     0.032914                       # mshr miss rate for overall accesses
system.cpu0.dcache.overall_mshr_miss_rate::total     0.032914                       # mshr miss rate for overall accesses
system.cpu0.dcache.ReadReq_avg_mshr_miss_latency::cpu0.data 65808.720874                       # average ReadReq mshr miss latency
system.cpu0.dcache.ReadReq_avg_mshr_miss_latency::total 65808.720874                       # average ReadReq mshr miss latency
system.cpu0.dcache.WriteReq_avg_mshr_miss_latency::cpu0.data 65775.654497                       # average WriteReq mshr miss latency
system.cpu0.dcache.WriteReq_avg_mshr_miss_latency::total 65775.654497                       # average WriteReq mshr miss latency
system.cpu0.dcache.demand_avg_mshr_miss_latency::cpu0.data 65802.822812                       # average overall mshr miss latency
system.cpu0.dcache.demand_avg_mshr_miss_latency::total 65802.822812                       # average overall mshr miss latency
system.cpu0.dcache.overall_avg_mshr_miss_latency::cpu0.data 65802.822812                       # average overall mshr miss latency
system.cpu0.dcache.overall_avg_mshr_miss_latency::total 65802.822812                       # average overall mshr miss latency
system.cpu0.dtb_walker_cache.tags.pwrStateResidencyTicks::UNDEFINED   4696175457                       # Cumulative time (in ticks) in various power states
system.cpu0.dtb_walker_cache.tags.replacements            0                       # number of replacements
system.cpu0.dtb_walker_cache.tags.tagsinuse            0                       # Cycle average of tags in use
system.cpu0.dtb_walker_cache.tags.total_refs            0                       # Total number of references to valid blocks.
system.cpu0.dtb_walker_cache.tags.sampled_refs            0                       # Sample count of references to valid blocks.
system.cpu0.dtb_walker_cache.tags.avg_refs          nan                       # Average number of references to valid blocks.
system.cpu0.dtb_walker_cache.tags.warmup_cycle            0                       # Cycle when the warmup percentage was hit.
system.cpu0.dtb_walker_cache.tags.tag_accesses            0                       # Number of tag accesses
system.cpu0.dtb_walker_cache.tags.data_accesses            0                       # Number of data accesses
system.cpu0.dtb_walker_cache.pwrStateResidencyTicks::UNDEFINED   4696175457                       # Cumulative time (in ticks) in various power states
system.cpu0.dtb_walker_cache.blocked_cycles::no_mshrs            0                       # number of cycles access was blocked
system.cpu0.dtb_walker_cache.blocked_cycles::no_targets            0                       # number of cycles access was blocked
system.cpu0.dtb_walker_cache.blocked::no_mshrs            0                       # number of cycles access was blocked
system.cpu0.dtb_walker_cache.blocked::no_targets            0                       # number of cycles access was blocked
system.cpu0.dtb_walker_cache.avg_blocked_cycles::no_mshrs          nan                       # average number of cycles each access was blocked
system.cpu0.dtb_walker_cache.avg_blocked_cycles::no_targets          nan                       # average number of cycles each access was blocked
system.cpu0.icache.tags.pwrStateResidencyTicks::UNDEFINED   4696175457                       # Cumulative time (in ticks) in various power states
system.cpu0.icache.tags.replacements              463                       # number of replacements
system.cpu0.icache.tags.tagsinuse          510.250717                       # Cycle average of tags in use
system.cpu0.icache.tags.total_refs             577981                       # Total number of references to valid blocks.
system.cpu0.icache.tags.sampled_refs              975                       # Sample count of references to valid blocks.
system.cpu0.icache.tags.avg_refs           592.801026                       # Average number of references to valid blocks.
system.cpu0.icache.tags.warmup_cycle            76257                       # Cycle when the warmup percentage was hit.
system.cpu0.icache.tags.occ_blocks::cpu0.inst   510.250717                       # Average occupied blocks per requestor
system.cpu0.icache.tags.occ_percent::cpu0.inst     0.996583                       # Average percentage of cache occupancy
system.cpu0.icache.tags.occ_percent::total     0.996583                       # Average percentage of cache occupancy
system.cpu0.icache.tags.occ_task_id_blocks::1024          512                       # Occupied blocks per task id
system.cpu0.icache.tags.age_task_id_blocks_1024::2            4                       # Occupied blocks per task id
system.cpu0.icache.tags.age_task_id_blocks_1024::3          508                       # Occupied blocks per task id
system.cpu0.icache.tags.occ_task_id_percent::1024            1                       # Percentage of cache occupancy per task id
system.cpu0.icache.tags.tag_accesses          4634639                       # Number of tag accesses
system.cpu0.icache.tags.data_accesses         4634639                       # Number of data accesses
system.cpu0.icache.pwrStateResidencyTicks::UNDEFINED   4696175457                       # Cumulative time (in ticks) in various power states
system.cpu0.icache.ReadReq_hits::cpu0.inst       577981                       # number of ReadReq hits
system.cpu0.icache.ReadReq_hits::total         577981                       # number of ReadReq hits
system.cpu0.icache.demand_hits::cpu0.inst       577981                       # number of demand (read+write) hits
system.cpu0.icache.demand_hits::total          577981                       # number of demand (read+write) hits
system.cpu0.icache.overall_hits::cpu0.inst       577981                       # number of overall hits
system.cpu0.icache.overall_hits::total         577981                       # number of overall hits
system.cpu0.icache.ReadReq_misses::cpu0.inst         1227                       # number of ReadReq misses
system.cpu0.icache.ReadReq_misses::total         1227                       # number of ReadReq misses
system.cpu0.icache.demand_misses::cpu0.inst         1227                       # number of demand (read+write) misses
system.cpu0.icache.demand_misses::total          1227                       # number of demand (read+write) misses
system.cpu0.icache.overall_misses::cpu0.inst         1227                       # number of overall misses
system.cpu0.icache.overall_misses::total         1227                       # number of overall misses
system.cpu0.icache.ReadReq_miss_latency::cpu0.inst     76248340                       # number of ReadReq miss cycles
system.cpu0.icache.ReadReq_miss_latency::total     76248340                       # number of ReadReq miss cycles
system.cpu0.icache.demand_miss_latency::cpu0.inst     76248340                       # number of demand (read+write) miss cycles
system.cpu0.icache.demand_miss_latency::total     76248340                       # number of demand (read+write) miss cycles
system.cpu0.icache.overall_miss_latency::cpu0.inst     76248340                       # number of overall miss cycles
system.cpu0.icache.overall_miss_latency::total     76248340                       # number of overall miss cycles
system.cpu0.icache.ReadReq_accesses::cpu0.inst       579208                       # number of ReadReq accesses(hits+misses)
system.cpu0.icache.ReadReq_accesses::total       579208                       # number of ReadReq accesses(hits+misses)
system.cpu0.icache.demand_accesses::cpu0.inst       579208                       # number of demand (read+write) accesses
system.cpu0.icache.demand_accesses::total       579208                       # number of demand (read+write) accesses
system.cpu0.icache.overall_accesses::cpu0.inst       579208                       # number of overall (read+write) accesses
system.cpu0.icache.overall_accesses::total       579208                       # number of overall (read+write) accesses
system.cpu0.icache.ReadReq_miss_rate::cpu0.inst     0.002118                       # miss rate for ReadReq accesses
system.cpu0.icache.ReadReq_miss_rate::total     0.002118                       # miss rate for ReadReq accesses
system.cpu0.icache.demand_miss_rate::cpu0.inst     0.002118                       # miss rate for demand accesses
system.cpu0.icache.demand_miss_rate::total     0.002118                       # miss rate for demand accesses
system.cpu0.icache.overall_miss_rate::cpu0.inst     0.002118                       # miss rate for overall accesses
system.cpu0.icache.overall_miss_rate::total     0.002118                       # miss rate for overall accesses
system.cpu0.icache.ReadReq_avg_miss_latency::cpu0.inst 62142.086390                       # average ReadReq miss latency
system.cpu0.icache.ReadReq_avg_miss_latency::total 62142.086390                       # average ReadReq miss latency
system.cpu0.icache.demand_avg_miss_latency::cpu0.inst 62142.086390                       # average overall miss latency
system.cpu0.icache.demand_avg_miss_latency::total 62142.086390                       # average overall miss latency
system.cpu0.icache.overall_avg_miss_latency::cpu0.inst 62142.086390                       # average overall miss latency
system.cpu0.icache.overall_avg_miss_latency::total 62142.086390                       # average overall miss latency
system.cpu0.icache.blocked_cycles::no_mshrs         1922                       # number of cycles access was blocked
system.cpu0.icache.blocked_cycles::no_targets            0                       # number of cycles access was blocked
system.cpu0.icache.blocked::no_mshrs               20                       # number of cycles access was blocked
system.cpu0.icache.blocked::no_targets              0                       # number of cycles access was blocked
system.cpu0.icache.avg_blocked_cycles::no_mshrs    96.100000                       # average number of cycles each access was blocked
system.cpu0.icache.avg_blocked_cycles::no_targets          nan                       # average number of cycles each access was blocked
system.cpu0.icache.writebacks::writebacks          463                       # number of writebacks
system.cpu0.icache.writebacks::total              463                       # number of writebacks
system.cpu0.icache.ReadReq_mshr_hits::cpu0.inst          252                       # number of ReadReq MSHR hits
system.cpu0.icache.ReadReq_mshr_hits::total          252                       # number of ReadReq MSHR hits
system.cpu0.icache.demand_mshr_hits::cpu0.inst          252                       # number of demand (read+write) MSHR hits
system.cpu0.icache.demand_mshr_hits::total          252                       # number of demand (read+write) MSHR hits
system.cpu0.icache.overall_mshr_hits::cpu0.inst          252                       # number of overall MSHR hits
system.cpu0.icache.overall_mshr_hits::total          252                       # number of overall MSHR hits
system.cpu0.icache.ReadReq_mshr_misses::cpu0.inst          975                       # number of ReadReq MSHR misses
system.cpu0.icache.ReadReq_mshr_misses::total          975                       # number of ReadReq MSHR misses
system.cpu0.icache.demand_mshr_misses::cpu0.inst          975                       # number of demand (read+write) MSHR misses
system.cpu0.icache.demand_mshr_misses::total          975                       # number of demand (read+write) MSHR misses
system.cpu0.icache.overall_mshr_misses::cpu0.inst          975                       # number of overall MSHR misses
system.cpu0.icache.overall_mshr_misses::total          975                       # number of overall MSHR misses
system.cpu0.icache.ReadReq_mshr_miss_latency::cpu0.inst     61684253                       # number of ReadReq MSHR miss cycles
system.cpu0.icache.ReadReq_mshr_miss_latency::total     61684253                       # number of ReadReq MSHR miss cycles
system.cpu0.icache.demand_mshr_miss_latency::cpu0.inst     61684253                       # number of demand (read+write) MSHR miss cycles
system.cpu0.icache.demand_mshr_miss_latency::total     61684253                       # number of demand (read+write) MSHR miss cycles
system.cpu0.icache.overall_mshr_miss_latency::cpu0.inst     61684253                       # number of overall MSHR miss cycles
system.cpu0.icache.overall_mshr_miss_latency::total     61684253                       # number of overall MSHR miss cycles
system.cpu0.icache.ReadReq_mshr_miss_rate::cpu0.inst     0.001683                       # mshr miss rate for ReadReq accesses
system.cpu0.icache.ReadReq_mshr_miss_rate::total     0.001683                       # mshr miss rate for ReadReq accesses
system.cpu0.icache.demand_mshr_miss_rate::cpu0.inst     0.001683                       # mshr miss rate for demand accesses
system.cpu0.icache.demand_mshr_miss_rate::total     0.001683                       # mshr miss rate for demand accesses
system.cpu0.icache.overall_mshr_miss_rate::cpu0.inst     0.001683                       # mshr miss rate for overall accesses
system.cpu0.icache.overall_mshr_miss_rate::total     0.001683                       # mshr miss rate for overall accesses
system.cpu0.icache.ReadReq_avg_mshr_miss_latency::cpu0.inst 63265.900513                       # average ReadReq mshr miss latency
system.cpu0.icache.ReadReq_avg_mshr_miss_latency::total 63265.900513                       # average ReadReq mshr miss latency
system.cpu0.icache.demand_avg_mshr_miss_latency::cpu0.inst 63265.900513                       # average overall mshr miss latency
system.cpu0.icache.demand_avg_mshr_miss_latency::total 63265.900513                       # average overall mshr miss latency
system.cpu0.icache.overall_avg_mshr_miss_latency::cpu0.inst 63265.900513                       # average overall mshr miss latency
system.cpu0.icache.overall_avg_mshr_miss_latency::total 63265.900513                       # average overall mshr miss latency
system.cpu0.itb_walker_cache.tags.pwrStateResidencyTicks::UNDEFINED   4696175457                       # Cumulative time (in ticks) in various power states
system.cpu0.itb_walker_cache.tags.replacements            0                       # number of replacements
system.cpu0.itb_walker_cache.tags.tagsinuse            0                       # Cycle average of tags in use
system.cpu0.itb_walker_cache.tags.total_refs            0                       # Total number of references to valid blocks.
system.cpu0.itb_walker_cache.tags.sampled_refs            0                       # Sample count of references to valid blocks.
system.cpu0.itb_walker_cache.tags.avg_refs          nan                       # Average number of references to valid blocks.
system.cpu0.itb_walker_cache.tags.warmup_cycle            0                       # Cycle when the warmup percentage was hit.
system.cpu0.itb_walker_cache.tags.tag_accesses            0                       # Number of tag accesses
system.cpu0.itb_walker_cache.tags.data_accesses            0                       # Number of data accesses
system.cpu0.itb_walker_cache.pwrStateResidencyTicks::UNDEFINED   4696175457                       # Cumulative time (in ticks) in various power states
system.cpu0.itb_walker_cache.blocked_cycles::no_mshrs            0                       # number of cycles access was blocked
system.cpu0.itb_walker_cache.blocked_cycles::no_targets            0                       # number of cycles access was blocked
system.cpu0.itb_walker_cache.blocked::no_mshrs            0                       # number of cycles access was blocked
system.cpu0.itb_walker_cache.blocked::no_targets            0                       # number of cycles access was blocked
system.cpu0.itb_walker_cache.avg_blocked_cycles::no_mshrs          nan                       # average number of cycles each access was blocked
system.cpu0.itb_walker_cache.avg_blocked_cycles::no_targets          nan                       # average number of cycles each access was blocked
system.cpu0.l2cache.tags.pwrStateResidencyTicks::UNDEFINED   4696175457                       # Cumulative time (in ticks) in various power states
system.cpu0.l2cache.tags.replacements           53571                       # number of replacements
system.cpu0.l2cache.tags.tagsinuse        3985.079207                       # Cycle average of tags in use
system.cpu0.l2cache.tags.total_refs             56569                       # Total number of references to valid blocks.
system.cpu0.l2cache.tags.sampled_refs           57667                       # Sample count of references to valid blocks.
system.cpu0.l2cache.tags.avg_refs            0.980960                       # Average number of references to valid blocks.
system.cpu0.l2cache.tags.warmup_cycle           73000                       # Cycle when the warmup percentage was hit.
system.cpu0.l2cache.tags.occ_blocks::writebacks   105.747643                       # Average occupied blocks per requestor
system.cpu0.l2cache.tags.occ_blocks::cpu0.inst   185.124141                       # Average occupied blocks per requestor
system.cpu0.l2cache.tags.occ_blocks::cpu0.data  3694.207422                       # Average occupied blocks per requestor
system.cpu0.l2cache.tags.occ_percent::writebacks     0.025817                       # Average percentage of cache occupancy
system.cpu0.l2cache.tags.occ_percent::cpu0.inst     0.045196                       # Average percentage of cache occupancy
system.cpu0.l2cache.tags.occ_percent::cpu0.data     0.901906                       # Average percentage of cache occupancy
system.cpu0.l2cache.tags.occ_percent::total     0.972920                       # Average percentage of cache occupancy
system.cpu0.l2cache.tags.occ_task_id_blocks::1024         4096                       # Occupied blocks per task id
system.cpu0.l2cache.tags.age_task_id_blocks_1024::0          116                       # Occupied blocks per task id
system.cpu0.l2cache.tags.age_task_id_blocks_1024::1           12                       # Occupied blocks per task id
system.cpu0.l2cache.tags.age_task_id_blocks_1024::2          500                       # Occupied blocks per task id
system.cpu0.l2cache.tags.age_task_id_blocks_1024::3         3468                       # Occupied blocks per task id
system.cpu0.l2cache.tags.occ_task_id_percent::1024            1                       # Percentage of cache occupancy per task id
system.cpu0.l2cache.tags.tag_accesses          514611                       # Number of tag accesses
system.cpu0.l2cache.tags.data_accesses         514611                       # Number of data accesses
system.cpu0.l2cache.pwrStateResidencyTicks::UNDEFINED   4696175457                       # Cumulative time (in ticks) in various power states
system.cpu0.l2cache.WritebackDirty_hits::writebacks         9695                       # number of WritebackDirty hits
system.cpu0.l2cache.WritebackDirty_hits::total         9695                       # number of WritebackDirty hits
system.cpu0.l2cache.WritebackClean_hits::writebacks          460                       # number of WritebackClean hits
system.cpu0.l2cache.WritebackClean_hits::total          460                       # number of WritebackClean hits
system.cpu0.l2cache.UpgradeReq_hits::cpu0.data            8                       # number of UpgradeReq hits
system.cpu0.l2cache.UpgradeReq_hits::total            8                       # number of UpgradeReq hits
system.cpu0.l2cache.ReadExReq_hits::cpu0.data            8                       # number of ReadExReq hits
system.cpu0.l2cache.ReadExReq_hits::total            8                       # number of ReadExReq hits
system.cpu0.l2cache.ReadCleanReq_hits::cpu0.inst           67                       # number of ReadCleanReq hits
system.cpu0.l2cache.ReadCleanReq_hits::total           67                       # number of ReadCleanReq hits
system.cpu0.l2cache.ReadSharedReq_hits::cpu0.data           40                       # number of ReadSharedReq hits
system.cpu0.l2cache.ReadSharedReq_hits::total           40                       # number of ReadSharedReq hits
system.cpu0.l2cache.demand_hits::cpu0.inst           67                       # number of demand (read+write) hits
system.cpu0.l2cache.demand_hits::cpu0.data           48                       # number of demand (read+write) hits
[...]
system.l3.demand_mshr_miss_latency::cpu2.inst     48560528                       # number of demand (read+write) MSHR miss cycles
system.l3.demand_mshr_miss_latency::cpu2.data   2893513000                       # number of demand (read+write) MSHR miss cycles
system.l3.demand_mshr_miss_latency::cpu3.inst     48088666                       # number of demand (read+write) MSHR miss cycles
system.l3.demand_mshr_miss_latency::cpu3.data   2907831144                       # number of demand (read+write) MSHR miss cycles
system.l3.demand_mshr_miss_latency::total  11761734207                       # number of demand (read+write) MSHR miss cycles
system.l3.overall_mshr_miss_latency::cpu0.inst     47692340                       # number of overall MSHR miss cycles
system.l3.overall_mshr_miss_latency::cpu0.data   2886801260                       # number of overall MSHR miss cycles
system.l3.overall_mshr_miss_latency::cpu1.inst     46119274                       # number of overall MSHR miss cycles
system.l3.overall_mshr_miss_latency::cpu1.data   2883127995                       # number of overall MSHR miss cycles
system.l3.overall_mshr_miss_latency::cpu2.inst     48560528                       # number of overall MSHR miss cycles
system.l3.overall_mshr_miss_latency::cpu2.data   2893513000                       # number of overall MSHR miss cycles
system.l3.overall_mshr_miss_latency::cpu3.inst     48088666                       # number of overall MSHR miss cycles
system.l3.overall_mshr_miss_latency::cpu3.data   2907831144                       # number of overall MSHR miss cycles
system.l3.overall_mshr_miss_latency::total  11761734207                       # number of overall MSHR miss cycles
system.l3.CleanEvict_mshr_miss_rate::writebacks          inf                       # mshr miss rate for CleanEvict accesses
system.l3.CleanEvict_mshr_miss_rate::total          inf                       # mshr miss rate for CleanEvict accesses
system.l3.ReadExReq_mshr_miss_rate::cpu0.data     0.999802                       # mshr miss rate for ReadExReq accesses
system.l3.ReadExReq_mshr_miss_rate::cpu1.data     0.999604                       # mshr miss rate for ReadExReq accesses
system.l3.ReadExReq_mshr_miss_rate::cpu2.data     0.999802                       # mshr miss rate for ReadExReq accesses
system.l3.ReadExReq_mshr_miss_rate::cpu3.data     0.999703                       # mshr miss rate for ReadExReq accesses
system.l3.ReadExReq_mshr_miss_rate::total     0.999728                       # mshr miss rate for ReadExReq accesses
system.l3.ReadSharedReq_mshr_miss_rate::cpu0.inst     0.982379                       # mshr miss rate for ReadSharedReq accesses
system.l3.ReadSharedReq_mshr_miss_rate::cpu0.data     0.999248                       # mshr miss rate for ReadSharedReq accesses
system.l3.ReadSharedReq_mshr_miss_rate::cpu1.inst     0.984479                       # mshr miss rate for ReadSharedReq accesses
system.l3.ReadSharedReq_mshr_miss_rate::cpu1.data     0.998843                       # mshr miss rate for ReadSharedReq accesses
system.l3.ReadSharedReq_mshr_miss_rate::cpu2.inst     0.982281                       # mshr miss rate for ReadSharedReq accesses
system.l3.ReadSharedReq_mshr_miss_rate::cpu2.data     0.998057                       # mshr miss rate for ReadSharedReq accesses
system.l3.ReadSharedReq_mshr_miss_rate::cpu3.inst     0.986562                       # mshr miss rate for ReadSharedReq accesses
system.l3.ReadSharedReq_mshr_miss_rate::cpu3.data     0.998585                       # mshr miss rate for ReadSharedReq accesses
system.l3.ReadSharedReq_mshr_miss_rate::total     0.998403                       # mshr miss rate for ReadSharedReq accesses
system.l3.demand_mshr_miss_rate::cpu0.inst     0.982379                       # mshr miss rate for demand accesses
system.l3.demand_mshr_miss_rate::cpu0.data     0.999346                       # mshr miss rate for demand accesses
system.l3.demand_mshr_miss_rate::cpu1.inst     0.984479                       # mshr miss rate for demand accesses
system.l3.demand_mshr_miss_rate::cpu1.data     0.998978                       # mshr miss rate for demand accesses
system.l3.demand_mshr_miss_rate::cpu2.inst     0.982281                       # mshr miss rate for demand accesses
system.l3.demand_mshr_miss_rate::cpu2.data     0.998369                       # mshr miss rate for demand accesses
system.l3.demand_mshr_miss_rate::cpu3.inst     0.986562                       # mshr miss rate for demand accesses
system.l3.demand_mshr_miss_rate::cpu3.data     0.998786                       # mshr miss rate for demand accesses
system.l3.demand_mshr_miss_rate::total       0.998636                       # mshr miss rate for demand accesses
system.l3.overall_mshr_miss_rate::cpu0.inst     0.982379                       # mshr miss rate for overall accesses
system.l3.overall_mshr_miss_rate::cpu0.data     0.999346                       # mshr miss rate for overall accesses
system.l3.overall_mshr_miss_rate::cpu1.inst     0.984479                       # mshr miss rate for overall accesses
system.l3.overall_mshr_miss_rate::cpu1.data     0.998978                       # mshr miss rate for overall accesses
system.l3.overall_mshr_miss_rate::cpu2.inst     0.982281                       # mshr miss rate for overall accesses
system.l3.overall_mshr_miss_rate::cpu2.data     0.998369                       # mshr miss rate for overall accesses
system.l3.overall_mshr_miss_rate::cpu3.inst     0.986562                       # mshr miss rate for overall accesses
system.l3.overall_mshr_miss_rate::cpu3.data     0.998786                       # mshr miss rate for overall accesses
system.l3.overall_mshr_miss_rate::total      0.998636                       # mshr miss rate for overall accesses
system.l3.ReadExReq_avg_mshr_miss_latency::cpu0.data 50967.529785                       # average ReadExReq mshr miss latency
system.l3.ReadExReq_avg_mshr_miss_latency::cpu1.data 51108.524621                       # average ReadExReq mshr miss latency
system.l3.ReadExReq_avg_mshr_miss_latency::cpu2.data 51401.242343                       # average ReadExReq mshr miss latency
system.l3.ReadExReq_avg_mshr_miss_latency::cpu3.data 53052.498117                       # average ReadExReq mshr miss latency
system.l3.ReadExReq_avg_mshr_miss_latency::total 51632.502341                       # average ReadExReq mshr miss latency
system.l3.ReadSharedReq_avg_mshr_miss_latency::cpu0.inst 53466.748879                       # average ReadSharedReq mshr miss latency
system.l3.ReadSharedReq_avg_mshr_miss_latency::cpu0.data 51044.294486                       # average ReadSharedReq mshr miss latency
system.l3.ReadSharedReq_avg_mshr_miss_latency::cpu1.inst 51936.119369                       # average ReadSharedReq mshr miss latency
system.l3.ReadSharedReq_avg_mshr_miss_latency::cpu1.data 50786.039431                       # average ReadSharedReq mshr miss latency
system.l3.ReadSharedReq_avg_mshr_miss_latency::cpu2.inst 54746.931229                       # average ReadSharedReq mshr miss latency
system.l3.ReadSharedReq_avg_mshr_miss_latency::cpu2.data 51361.964273                       # average ReadSharedReq mshr miss latency
system.l3.ReadSharedReq_avg_mshr_miss_latency::cpu3.inst 54584.183882                       # average ReadSharedReq mshr miss latency
system.l3.ReadSharedReq_avg_mshr_miss_latency::cpu3.data 51726.269116                       # average ReadSharedReq mshr miss latency
system.l3.ReadSharedReq_avg_mshr_miss_latency::total 51273.624421                       # average ReadSharedReq mshr miss latency
system.l3.demand_avg_mshr_miss_latency::cpu0.inst 53466.748879                       # average overall mshr miss latency
system.l3.demand_avg_mshr_miss_latency::cpu0.data 51030.603854                       # average overall mshr miss latency
system.l3.demand_avg_mshr_miss_latency::cpu1.inst 51936.119369                       # average overall mshr miss latency
system.l3.demand_avg_mshr_miss_latency::cpu1.data 50843.437996                       # average overall mshr miss latency
system.l3.demand_avg_mshr_miss_latency::cpu2.inst 54746.931229                       # average overall mshr miss latency
system.l3.demand_avg_mshr_miss_latency::cpu2.data 51368.999432                       # average overall mshr miss latency
system.l3.demand_avg_mshr_miss_latency::cpu3.inst 54584.183882                       # average overall mshr miss latency
system.l3.demand_avg_mshr_miss_latency::cpu3.data 51965.458191                       # average overall mshr miss latency
system.l3.demand_avg_mshr_miss_latency::total 51336.849303                       # average overall mshr miss latency
system.l3.overall_avg_mshr_miss_latency::cpu0.inst 53466.748879                       # average overall mshr miss latency
system.l3.overall_avg_mshr_miss_latency::cpu0.data 51030.603854                       # average overall mshr miss latency
system.l3.overall_avg_mshr_miss_latency::cpu1.inst 51936.119369                       # average overall mshr miss latency
system.l3.overall_avg_mshr_miss_latency::cpu1.data 50843.437996                       # average overall mshr miss latency
system.l3.overall_avg_mshr_miss_latency::cpu2.inst 54746.931229                       # average overall mshr miss latency
system.l3.overall_avg_mshr_miss_latency::cpu2.data 51368.999432                       # average overall mshr miss latency
system.l3.overall_avg_mshr_miss_latency::cpu3.inst 54584.183882                       # average overall mshr miss latency
system.l3.overall_avg_mshr_miss_latency::cpu3.data 51965.458191                       # average overall mshr miss latency
system.l3.overall_avg_mshr_miss_latency::total 51336.849303                       # average overall mshr miss latency
system.membus.snoop_filter.tot_requests        423389                       # Total number of requests made to the snoop filter.
system.membus.snoop_filter.hit_single_requests       194283                       # Number of requests hitting in the snoop filter with a single holder of the requested data.
system.membus.snoop_filter.hit_multi_requests            0                       # Number of requests hitting in the snoop filter with multiple (>1) holders of the requested data.
system.membus.snoop_filter.tot_snoops               0                       # Total number of snoops made to the snoop filter.
system.membus.snoop_filter.hit_single_snoops            0                       # Number of snoops hitting in the snoop filter with a single holder of the requested data.
system.membus.snoop_filter.hit_multi_snoops            0                       # Number of snoops hitting in the snoop filter with multiple (>1) holders of the requested data.
system.membus.pwrStateResidencyTicks::UNDEFINED   4696175457                       # Cumulative time (in ticks) in various power states
system.membus.trans_dist::ReadResp             188745                       # Transaction distribution
system.membus.trans_dist::WritebackDirty        13720                       # Transaction distribution
system.membus.trans_dist::CleanEvict           180561                       # Transaction distribution
system.membus.trans_dist::ReadExReq             40363                       # Transaction distribution
system.membus.trans_dist::ReadExResp            40363                       # Transaction distribution
system.membus.trans_dist::ReadSharedReq        188745                       # Transaction distribution
system.membus.pkt_count_system.l3.mem_side::system.mem_ctrls.port       652497                       # Packet count per connected master and slave (bytes)
system.membus.pkt_count_system.l3.mem_side::total       652497                       # Packet count per connected master and slave (bytes)
system.membus.pkt_count::total                 652497                       # Packet count per connected master and slave (bytes)
system.membus.pkt_size_system.l3.mem_side::system.mem_ctrls.port     15540992                       # Cumulative packet size per connected master and slave (bytes)
system.membus.pkt_size_system.l3.mem_side::total     15540992                       # Cumulative packet size per connected master and slave (bytes)
system.membus.pkt_size::total                15540992                       # Cumulative packet size per connected master and slave (bytes)
system.membus.snoops                                0                       # Total snoops (count)
system.membus.snoopTraffic                          0                       # Total snoop traffic (bytes)
system.membus.snoop_fanout::samples            229108                       # Request fanout histogram
system.membus.snoop_fanout::mean                    0                       # Request fanout histogram
system.membus.snoop_fanout::stdev                   0                       # Request fanout histogram
system.membus.snoop_fanout::underflows              0      0.00%      0.00% # Request fanout histogram
system.membus.snoop_fanout::0                  229108    100.00%    100.00% # Request fanout histogram
system.membus.snoop_fanout::1                       0      0.00%    100.00% # Request fanout histogram
system.membus.snoop_fanout::overflows               0      0.00%    100.00% # Request fanout histogram
system.membus.snoop_fanout::min_value               0                       # Request fanout histogram
system.membus.snoop_fanout::max_value               0                       # Request fanout histogram
system.membus.snoop_fanout::total              229108                       # Request fanout histogram
system.membus.reqLayer8.occupancy           581651155                       # Layer occupancy (ticks)
system.membus.reqLayer8.utilization              12.4                       # Layer utilization (%)
system.membus.respLayer1.occupancy         1238955387                       # Layer occupancy (ticks)
system.membus.respLayer1.utilization             26.4                       # Layer utilization (%)
system.tol3bus.snoop_filter.tot_requests       440902                       # Total number of requests made to the snoop filter.
system.tol3bus.snoop_filter.hit_single_requests       211482                       # Number of requests hitting in the snoop filter with a single holder of the requested data.
system.tol3bus.snoop_filter.hit_multi_requests            0                       # Number of requests hitting in the snoop filter with multiple (>1) holders of the requested data.
system.tol3bus.snoop_filter.tot_snoops            157                       # Total number of snoops made to the snoop filter.
system.tol3bus.snoop_filter.hit_single_snoops          157                       # Number of snoops hitting in the snoop filter with a single holder of the requested data.
system.tol3bus.snoop_filter.hit_multi_snoops            0                       # Number of snoops hitting in the snoop filter with multiple (>1) holders of the requested data.
system.tol3bus.pwrStateResidencyTicks::UNDEFINED   4696175457                       # Cumulative time (in ticks) in various power states
system.tol3bus.trans_dist::ReadResp            189047                       # Transaction distribution
system.tol3bus.trans_dist::WritebackDirty        39700                       # Transaction distribution
system.tol3bus.trans_dist::CleanEvict          366192                       # Transaction distribution
system.tol3bus.trans_dist::ReadExReq            40374                       # Transaction distribution
system.tol3bus.trans_dist::ReadExResp           40374                       # Transaction distribution
system.tol3bus.trans_dist::ReadSharedReq       189048                       # Transaction distribution
system.tol3bus.pkt_count_system.cpu0.l2cache.mem_side::system.l3.cpu_side       168069                       # Packet count per connected master and slave (bytes)
system.tol3bus.pkt_count_system.cpu1.l2cache.mem_side::system.l3.cpu_side       168508                       # Packet count per connected master and slave (bytes)
system.tol3bus.pkt_count_system.cpu2.l2cache.mem_side::system.l3.cpu_side       167482                       # Packet count per connected master and slave (bytes)
system.tol3bus.pkt_count_system.cpu3.l2cache.mem_side::system.l3.cpu_side       166264                       # Packet count per connected master and slave (bytes)
system.tol3bus.pkt_count::total                670323                       # Packet count per connected master and slave (bytes)
system.tol3bus.pkt_size_system.cpu0.l2cache.mem_side::system.l3.cpu_side      4096192                       # Cumulative packet size per connected master and slave (bytes)
system.tol3bus.pkt_size_system.cpu1.l2cache.mem_side::system.l3.cpu_side      4105408                       # Cumulative packet size per connected master and slave (bytes)
system.tol3bus.pkt_size_system.cpu2.l2cache.mem_side::system.l3.cpu_side      4085760                       # Cumulative packet size per connected master and slave (bytes)
system.tol3bus.pkt_size_system.cpu3.l2cache.mem_side::system.l3.cpu_side      4058304                       # Cumulative packet size per connected master and slave (bytes)
system.tol3bus.pkt_size::total               16345664                       # Cumulative packet size per connected master and slave (bytes)
system.tol3bus.snoops                          194412                       # Total snoops (count)
system.tol3bus.snoopTraffic                    878080                       # Total snoop traffic (bytes)
system.tol3bus.snoop_fanout::samples           423834                       # Request fanout histogram
system.tol3bus.snoop_fanout::mean            0.000370                       # Request fanout histogram
system.tol3bus.snoop_fanout::stdev           0.019243                       # Request fanout histogram
system.tol3bus.snoop_fanout::underflows             0      0.00%      0.00% # Request fanout histogram
system.tol3bus.snoop_fanout::0                 423677     99.96%     99.96% # Request fanout histogram
system.tol3bus.snoop_fanout::1                    157      0.04%    100.00% # Request fanout histogram
system.tol3bus.snoop_fanout::2                      0      0.00%    100.00% # Request fanout histogram
system.tol3bus.snoop_fanout::3                      0      0.00%    100.00% # Request fanout histogram
system.tol3bus.snoop_fanout::4                      0      0.00%    100.00% # Request fanout histogram
system.tol3bus.snoop_fanout::overflows              0      0.00%    100.00% # Request fanout histogram
system.tol3bus.snoop_fanout::min_value              0                       # Request fanout histogram
system.tol3bus.snoop_fanout::max_value              1                       # Request fanout histogram
system.tol3bus.snoop_fanout::total             423834                       # Request fanout histogram
system.tol3bus.reqLayer0.occupancy          645317104                       # Layer occupancy (ticks)
system.tol3bus.reqLayer0.utilization             13.7                       # Layer utilization (%)
system.tol3bus.respLayer0.occupancy         182573853                       # Layer occupancy (ticks)
system.tol3bus.respLayer0.utilization             3.9                       # Layer utilization (%)
system.tol3bus.respLayer1.occupancy         183042277                       # Layer occupancy (ticks)
system.tol3bus.respLayer1.utilization             3.9                       # Layer utilization (%)
system.tol3bus.respLayer2.occupancy         181956689                       # Layer occupancy (ticks)
system.tol3bus.respLayer2.utilization             3.9                       # Layer utilization (%)
system.tol3bus.respLayer3.occupancy         180687151                       # Layer occupancy (ticks)
system.tol3bus.respLayer3.utilization             3.8                       # Layer utilization (%)

---------- End Simulation Statistics   ----------
