
---------- Begin Simulation Statistics ----------
sim_seconds                                  0.000487                       # Number of seconds simulated
sim_ticks                                   486969543                       # Number of ticks simulated
final_tick                                  486969543                       # Number of ticks from beginning of simulation (restored from checkpoints and never reset)
sim_freq                                 1000000000000                       # Frequency of simulated ticks
host_inst_rate                                 199120                       # Simulator instruction rate (inst/s)
host_op_rate                                   304723                       # Simulator op (including micro ops) rate (op/s)
host_tick_rate                               12234085                       # Simulator tick rate (ticks/s)
host_mem_usage                               33896536                       # Number of bytes of host memory used
host_seconds                                    39.80                       # Real time elapsed on the host
sim_insts                                     7925824                       # Number of instructions simulated
sim_ops                                      12129282                       # Number of ops (including micro ops) simulated
system.voltage_domain.voltage                       1                       # Voltage in Volts
system.clk_domain.clock                          1000                       # Clock period in ticks
system.mem_ctrls.pwrStateResidencyTicks::UNDEFINED    486969543                       # Cumulative time (in ticks) in various power states
system.mem_ctrls.bytes_read::cpu0.inst          84672                       # Number of bytes read from this memory
system.mem_ctrls.bytes_read::cpu0.data         217344                       # Number of bytes read from this memory
system.mem_ctrls.bytes_read::cpu1.inst          84672                       # Number of bytes read from this memory
system.mem_ctrls.bytes_read::cpu1.data         217088                       # Number of bytes read from this memory
system.mem_ctrls.bytes_read::cpu2.inst          85760                       # Number of bytes read from this memory
system.mem_ctrls.bytes_read::cpu2.data         216448                       # Number of bytes read from this memory
system.mem_ctrls.bytes_read::cpu3.inst          85888                       # Number of bytes read from this memory
system.mem_ctrls.bytes_read::cpu3.data         216448                       # Number of bytes read from this memory
system.mem_ctrls.bytes_read::total            1208320                       # Number of bytes read from this memory
system.mem_ctrls.bytes_inst_read::cpu0.inst        84672                       # Number of instructions bytes read from this memory
system.mem_ctrls.bytes_inst_read::cpu1.inst        84672                       # Number of instructions bytes read from this memory
system.mem_ctrls.bytes_inst_read::cpu2.inst        85760                       # Number of instructions bytes read from this memory
system.mem_ctrls.bytes_inst_read::cpu3.inst        85888                       # Number of instructions bytes read from this memory
system.mem_ctrls.bytes_inst_read::total        340992                       # Number of instructions bytes read from this memory
system.mem_ctrls.num_reads::cpu0.inst            1323                       # Number of read requests responded to by this memory
system.mem_ctrls.num_reads::cpu0.data            3396                       # Number of read requests responded to by this memory
system.mem_ctrls.num_reads::cpu1.inst            1323                       # Number of read requests responded to by this memory
system.mem_ctrls.num_reads::cpu1.data            3392                       # Number of read requests responded to by this memory
system.mem_ctrls.num_reads::cpu2.inst            1340                       # Number of read requests responded to by this memory
system.mem_ctrls.num_reads::cpu2.data            3382                       # Number of read requests responded to by this memory
system.mem_ctrls.num_reads::cpu3.inst            1342                       # Number of read requests responded to by this memory
system.mem_ctrls.num_reads::cpu3.data            3382                       # Number of read requests responded to by this memory
system.mem_ctrls.num_reads::total               18880                       # Number of read requests responded to by this memory
system.mem_ctrls.bw_read::cpu0.inst         173875351                       # Total read bandwidth from this memory (bytes/s)
system.mem_ctrls.bw_read::cpu0.data         446319494                       # Total read bandwidth from this memory (bytes/s)
system.mem_ctrls.bw_read::cpu1.inst         173875351                       # Total read bandwidth from this memory (bytes/s)
system.mem_ctrls.bw_read::cpu1.data         445793794                       # Total read bandwidth from this memory (bytes/s)
system.mem_ctrls.bw_read::cpu2.inst         176109577                       # Total read bandwidth from this memory (bytes/s)
system.mem_ctrls.bw_read::cpu2.data         444479543                       # Total read bandwidth from this memory (bytes/s)
system.mem_ctrls.bw_read::cpu3.inst         176372427                       # Total read bandwidth from this memory (bytes/s)
system.mem_ctrls.bw_read::cpu3.data         444479543                       # Total read bandwidth from this memory (bytes/s)
system.mem_ctrls.bw_read::total            2481305078                       # Total read bandwidth from this memory (bytes/s)
system.mem_ctrls.bw_inst_read::cpu0.inst    173875351                       # Instruction read bandwidth from this memory (bytes/s)
system.mem_ctrls.bw_inst_read::cpu1.inst    173875351                       # Instruction read bandwidth from this memory (bytes/s)
system.mem_ctrls.bw_inst_read::cpu2.inst    176109577                       # Instruction read bandwidth from this memory (bytes/s)
system.mem_ctrls.bw_inst_read::cpu3.inst    176372427                       # Instruction read bandwidth from this memory (bytes/s)
system.mem_ctrls.bw_inst_read::total        700232704                       # Instruction read bandwidth from this memory (bytes/s)
system.mem_ctrls.bw_total::cpu0.inst        173875351                       # Total bandwidth to/from this memory (bytes/s)
system.mem_ctrls.bw_total::cpu0.data        446319494                       # Total bandwidth to/from this memory (bytes/s)
system.mem_ctrls.bw_total::cpu1.inst        173875351                       # Total bandwidth to/from this memory (bytes/s)
system.mem_ctrls.bw_total::cpu1.data        445793794                       # Total bandwidth to/from this memory (bytes/s)
system.mem_ctrls.bw_total::cpu2.inst        176109577                       # Total bandwidth to/from this memory (bytes/s)
system.mem_ctrls.bw_total::cpu2.data        444479543                       # Total bandwidth to/from this memory (bytes/s)
system.mem_ctrls.bw_total::cpu3.inst        176372427                       # Total bandwidth to/from this memory (bytes/s)
system.mem_ctrls.bw_total::cpu3.data        444479543                       # Total bandwidth to/from this memory (bytes/s)
system.mem_ctrls.bw_total::total           2481305078                       # Total bandwidth to/from this memory (bytes/s)
system.pwrStateResidencyTicks::UNDEFINED    486969543                       # Cumulative time (in ticks) in various power states
system.cpu0.branchPred.lookups                 234617                       # Number of BP lookups
system.cpu0.branchPred.condPredicted           234617                       # Number of conditional branches predicted
system.cpu0.branchPred.condIncorrect            14491                       # Number of conditional branches incorrect
system.cpu0.branchPred.BTBLookups              203371                       # Number of BTB lookups
system.cpu0.branchPred.BTBHits                      0                       # Number of BTB hits
system.cpu0.branchPred.BTBCorrect                   0                       # Number of correct BTB predictions (this stat may not work properly.
system.cpu0.branchPred.BTBHitPct             0.000000                       # BTB Hit Percentage
system.cpu0.branchPred.usedRAS                   7230                       # Number of times the RAS was used to get a target.
system.cpu0.branchPred.RASInCorrect              1412                       # Number of incorrect RAS predictions.
system.cpu0.branchPred.indirectLookups         203371                       # Number of indirect predictor lookups.
system.cpu0.branchPred.indirectHits            113528                       # Number of indirect target hits.
system.cpu0.branchPred.indirectMisses           89843                       # Number of indirect misses.
system.cpu0.branchPredindirectMispredicted         6707                       # Number of mispredicted indirect branches.
system.cpu_voltage_domain.voltage                   1                       # Voltage in Volts
system.cpu_clk_domain.clock                       333                       # Clock period in ticks
system.cpu0.dtb.walker.pwrStateResidencyTicks::UNDEFINED    486969543                       # Cumulative time (in ticks) in various power states
system.cpu0.dtb.rdAccesses                     941042                       # TLB accesses on read requests
system.cpu0.dtb.wrAccesses                     134148                       # TLB accesses on write requests
system.cpu0.dtb.rdMisses                         1003                       # TLB misses on read requests
system.cpu0.dtb.wrMisses                           84                       # TLB misses on write requests
system.cpu0.apic_clk_domain.clock                5328                       # Clock period in ticks
system.cpu0.interrupts.pwrStateResidencyTicks::UNDEFINED    486969543                       # Cumulative time (in ticks) in various power states
system.cpu0.itb.walker.pwrStateResidencyTicks::UNDEFINED    486969543                       # Cumulative time (in ticks) in various power states
system.cpu0.itb.rdAccesses                          0                       # TLB accesses on read requests
system.cpu0.itb.wrAccesses                     267810                       # TLB accesses on write requests
system.cpu0.itb.rdMisses                            0                       # TLB misses on read requests
system.cpu0.itb.wrMisses                          189                       # TLB misses on write requests
system.cpu0.workload.numSyscalls                  147                       # Number of system calls
system.cpu0.pwrStateResidencyTicks::ON      486969543                       # Cumulative time (in ticks) in various power states
system.cpu0.numCycles                         1462372                       # number of cpu cycles simulated
system.cpu0.numWorkItemsStarted                     0                       # number of work items this cpu started
system.cpu0.numWorkItemsCompleted                   0                       # number of work items this cpu completed
system.cpu0.fetch.icacheStallCycles            317396                       # Number of cycles fetch is stalled on an Icache miss
system.cpu0.fetch.Insts                       2451155                       # Number of instructions fetch has processed
system.cpu0.fetch.Branches                     234617                       # Number of branches that fetch encountered
system.cpu0.fetch.predictedBranches            120758                       # Number of branches that fetch has predicted taken
system.cpu0.fetch.Cycles                      1014342                       # Number of cycles fetch has run and was not squashing or blocked
system.cpu0.fetch.SquashCycles                  29168                       # Number of cycles fetch has spent squashing
system.cpu0.fetch.MiscStallCycles                   9                       # Number of cycles fetch has spent waiting on interrupts, or bad addresses, or out of MSHRs
system.cpu0.fetch.PendingQuiesceStallCycles            9                       # Number of stall cycles due to pending quiesce instructions
system.cpu0.fetch.IcacheWaitRetryStallCycles          114                       # Number of stall cycles due to full MSHR
system.cpu0.fetch.CacheLines                   267810                       # Number of cache lines fetched
system.cpu0.fetch.IcacheSquashes                 4390                       # Number of outstanding Icache misses that were squashed
system.cpu0.fetch.rateDist::samples           1346454                       # Number of instructions fetched each cycle (Total)
system.cpu0.fetch.rateDist::mean             2.895001                       # Number of instructions fetched each cycle (Total)
system.cpu0.fetch.rateDist::stdev            3.551672                       # Number of instructions fetched each cycle (Total)
system.cpu0.fetch.rateDist::underflows              0      0.00%      0.00% # Number of instructions fetched each cycle (Total)
system.cpu0.fetch.rateDist::0                  761128     56.53%     56.53% # Number of instructions fetched each cycle (Total)
system.cpu0.fetch.rateDist::1                   19015      1.41%     57.94% # Number of instructions fetched each cycle (Total)
system.cpu0.fetch.rateDist::2                   21205      1.57%     59.52% # Number of instructions fetched each cycle (Total)
system.cpu0.fetch.rateDist::3                   24086      1.79%     61.30% # Number of instructions fetched each cycle (Total)
system.cpu0.fetch.rateDist::4                   26002      1.93%     63.24% # Number of instructions fetched each cycle (Total)
system.cpu0.fetch.rateDist::5                   33711      2.50%     65.74% # Number of instructions fetched each cycle (Total)
system.cpu0.fetch.rateDist::6                   73505      5.46%     71.20% # Number of instructions fetched each cycle (Total)
system.cpu0.fetch.rateDist::7                   51706      3.84%     75.04% # Number of instructions fetched each cycle (Total)
system.cpu0.fetch.rateDist::8                  336096     24.96%    100.00% # Number of instructions fetched each cycle (Total)
system.cpu0.fetch.rateDist::overflows               0      0.00%    100.00% # Number of instructions fetched each cycle (Total)
system.cpu0.fetch.rateDist::min_value               0                       # Number of instructions fetched each cycle (Total)
system.cpu0.fetch.rateDist::max_value               8                       # Number of instructions fetched each cycle (Total)
system.cpu0.fetch.rateDist::total             1346454                       # Number of instructions fetched each cycle (Total)
system.cpu0.fetch.branchRate                 0.160436                       # Number of branch fetches per cycle
system.cpu0.fetch.rate                       1.676150                       # Number of inst fetches per cycle
system.cpu0.decode.IdleCycles                  183815                       # Number of cycles decode is idle
system.cpu0.decode.BlockedCycles               640170                       # Number of cycles decode is blocked
system.cpu0.decode.RunCycles                   421287                       # Number of cycles decode is running
system.cpu0.decode.UnblockCycles                86598                       # Number of cycles decode is unblocking
system.cpu0.decode.SquashCycles                 14584                       # Number of cycles decode is squashing
system.cpu0.decode.DecodedInsts               3751906                       # Number of instructions handled by decode
system.cpu0.rename.SquashCycles                 14584                       # Number of cycles rename is squashing
system.cpu0.rename.IdleCycles                  232023                       # Number of cycles rename is idle
system.cpu0.rename.BlockCycles                 245682                       # Number of cycles rename is blocking
system.cpu0.rename.serializeStallCycles         10111                       # count of cycles rename stalled for serializing inst
system.cpu0.rename.RunCycles                   457065                       # Number of cycles rename is running
system.cpu0.rename.UnblockCycles               386989                       # Number of cycles rename is unblocking
system.cpu0.rename.RenamedInsts               3681849                       # Number of instructions processed by rename
system.cpu0.rename.ROBFullEvents                 2408                       # Number of times rename has blocked due to ROB full
system.cpu0.rename.IQFullEvents                 19626                       # Number of times rename has blocked due to IQ full
system.cpu0.rename.LQFullEvents                295685                       # Number of times rename has blocked due to LQ full
system.cpu0.rename.SQFullEvents                 43960                       # Number of times rename has blocked due to SQ full
system.cpu0.rename.FullRegisterEvents               3                       # Number of times there has been no free registers
system.cpu0.rename.RenamedOperands            4978690                       # Number of destination operands rename has renamed
system.cpu0.rename.RenameLookups              8802442                       # Number of register rename lookups that rename has made
system.cpu0.rename.int_rename_lookups         5736143                       # Number of integer rename lookups
system.cpu0.rename.fp_rename_lookups           347562                       # Number of floating rename lookups
system.cpu0.rename.CommittedMaps              4171798                       # Number of HB maps that are committed
system.cpu0.rename.UndoneMaps                  806851                       # Number of HB maps that are undone due to squashing
system.cpu0.rename.serializingInsts               392                       # count of serializing insts renamed
system.cpu0.rename.tempSerializingInsts           375                       # count of temporary serializing insts renamed
system.cpu0.rename.skidInsts                   495781                       # count of insts added to the skid buffer
system.cpu0.memDep0.insertedLoads              968404                       # Number of loads inserted to the mem dependence unit.
system.cpu0.memDep0.insertedStores             143079                       # Number of stores inserted to the mem dependence unit.
system.cpu0.memDep0.conflictingLoads           115143                       # Number of conflicting loads.
system.cpu0.memDep0.conflictingStores           37456                       # Number of conflicting stores.
system.cpu0.iq.iqInstsAdded                   3557011                       # Number of instructions added to the IQ (excludes non-spec)
system.cpu0.iq.iqNonSpecInstsAdded                503                       # Number of non-speculative instructions added to the IQ
system.cpu0.iq.iqInstsIssued                  3385425                       # Number of instructions issued
system.cpu0.iq.iqSquashedInstsIssued             8143                       # Number of squashed instructions issued
system.cpu0.iq.iqSquashedInstsExamined         532580                       # Number of squashed instructions iterated over during squash; mainly for profiling
system.cpu0.iq.iqSquashedOperandsExamined       733498                       # Number of squashed operands that are examined and possibly removed from graph
system.cpu0.iq.iqSquashedNonSpecRemoved           266                       # Number of squashed non-spec instructions that were removed
system.cpu0.iq.issued_per_cycle::samples      1346454                       # Number of insts issued each cycle
system.cpu0.iq.issued_per_cycle::mean        2.514327                       # Number of insts issued each cycle
system.cpu0.iq.issued_per_cycle::stdev       2.432329                       # Number of insts issued each cycle
system.cpu0.iq.issued_per_cycle::underflows            0      0.00%      0.00% # Number of insts issued each cycle
system.cpu0.iq.issued_per_cycle::0             504470     37.47%     37.47% # Number of insts issued each cycle
system.cpu0.iq.issued_per_cycle::1              86758      6.44%     43.91% # Number of insts issued each cycle
system.cpu0.iq.issued_per_cycle::2             116730      8.67%     52.58% # Number of insts issued each cycle
system.cpu0.iq.issued_per_cycle::3             124384      9.24%     61.82% # Number of insts issued each cycle
system.cpu0.iq.issued_per_cycle::4             175540     13.04%     74.85% # Number of insts issued each cycle
system.cpu0.iq.issued_per_cycle::5             149897     11.13%     85.99% # Number of insts issued each cycle
system.cpu0.iq.issued_per_cycle::6             104215      7.74%     93.73% # Number of insts issued each cycle
system.cpu0.iq.issued_per_cycle::7              60560      4.50%     98.22% # Number of insts issued each cycle
system.cpu0.iq.issued_per_cycle::8              23900      1.78%    100.00% # Number of insts issued each cycle
system.cpu0.iq.issued_per_cycle::overflows            0      0.00%    100.00% # Number of insts issued each cycle
system.cpu0.iq.issued_per_cycle::min_value            0                       # Number of insts issued each cycle
system.cpu0.iq.issued_per_cycle::max_value            8                       # Number of insts issued each cycle
system.cpu0.iq.issued_per_cycle::total        1346454                       # Number of insts issued each cycle
system.cpu0.iq.fu_full::No_OpClass                  0      0.00%      0.00% # attempts to use FU when none available
system.cpu0.iq.fu_full::IntAlu                  20187     60.48%     60.48% # attempts to use FU when none available
system.cpu0.iq.fu_full::IntMult                     0      0.00%     60.48% # attempts to use FU when none available
system.cpu0.iq.fu_full::IntDiv                      0      0.00%     60.48% # attempts to use FU when none available
system.cpu0.iq.fu_full::FloatAdd                 3223      9.66%     70.13% # attempts to use FU when none available
system.cpu0.iq.fu_full::FloatCmp                    0      0.00%     70.13% # attempts to use FU when none available
system.cpu0.iq.fu_full::FloatCvt                    0      0.00%     70.13% # attempts to use FU when none available
system.cpu0.iq.fu_full::FloatMult                   0      0.00%     70.13% # attempts to use FU when none available
system.cpu0.iq.fu_full::FloatMultAcc                0      0.00%     70.13% # attempts to use FU when none available
system.cpu0.iq.fu_full::FloatDiv                    0      0.00%     70.13% # attempts to use FU when none available
system.cpu0.iq.fu_full::FloatMisc                   0      0.00%     70.13% # attempts to use FU when none available
system.cpu0.iq.fu_full::FloatSqrt                   0      0.00%     70.13% # attempts to use FU when none available
system.cpu0.iq.fu_full::SimdAdd                     0      0.00%     70.13% # attempts to use FU when none available
system.cpu0.iq.fu_full::SimdAddAcc                  0      0.00%     70.13% # attempts to use FU when none available
system.cpu0.iq.fu_full::SimdAlu                     0      0.00%     70.13% # attempts to use FU when none available
system.cpu0.iq.fu_full::SimdCmp                     0      0.00%     70.13% # attempts to use FU when none available
system.cpu0.iq.fu_full::SimdCvt                     0      0.00%     70.13% # attempts to use FU when none available
system.cpu0.iq.fu_full::SimdMisc                    0      0.00%     70.13% # attempts to use FU when none available
system.cpu0.iq.fu_full::SimdMult                    0      0.00%     70.13% # attempts to use FU when none available
system.cpu0.iq.fu_full::SimdMultAcc                 0      0.00%     70.13% # attempts to use FU when none available
system.cpu0.iq.fu_full::SimdShift                   0      0.00%     70.13% # attempts to use FU when none available
system.cpu0.iq.fu_full::SimdShiftAcc                0      0.00%     70.13% # attempts to use FU when none available
system.cpu0.iq.fu_full::SimdSqrt                    0      0.00%     70.13% # attempts to use FU when none available
system.cpu0.iq.fu_full::SimdFloatAdd                0      0.00%     70.13% # attempts to use FU when none available
system.cpu0.iq.fu_full::SimdFloatAlu                0      0.00%     70.13% # attempts to use FU when none available
system.cpu0.iq.fu_full::SimdFloatCmp                0      0.00%     70.13% # attempts to use FU when none available
system.cpu0.iq.fu_full::SimdFloatCvt                0      0.00%     70.13% # attempts to use FU when none available
system.cpu0.iq.fu_full::SimdFloatDiv                0      0.00%     70.13% # attempts to use FU when none available
system.cpu0.iq.fu_full::SimdFloatMisc               0      0.00%     70.13% # attempts to use FU when none available
system.cpu0.iq.fu_full::SimdFloatMult               0      0.00%     70.13% # attempts to use FU when none available
system.cpu0.iq.fu_full::SimdFloatMultAcc            0      0.00%     70.13% # attempts to use FU when none available
system.cpu0.iq.fu_full::SimdFloatSqrt               0      0.00%     70.13% # attempts to use FU when none available
system.cpu0.iq.fu_full::MemRead                  8720     26.12%     96.26% # attempts to use FU when none available
system.cpu0.iq.fu_full::MemWrite                  881      2.64%     98.90% # attempts to use FU when none available
system.cpu0.iq.fu_full::FloatMemRead              181      0.54%     99.44% # attempts to use FU when none available
system.cpu0.iq.fu_full::FloatMemWrite             187      0.56%    100.00% # attempts to use FU when none available
system.cpu0.iq.fu_full::IprAccess                   0      0.00%    100.00% # attempts to use FU when none available
system.cpu0.iq.fu_full::InstPrefetch                0      0.00%    100.00% # attempts to use FU when none available
system.cpu0.iq.FU_type_0::No_OpClass            10298      0.30%      0.30% # Type of FU issued
system.cpu0.iq.FU_type_0::IntAlu              1890924     55.85%     56.16% # Type of FU issued
system.cpu0.iq.FU_type_0::IntMult               75966      2.24%     58.40% # Type of FU issued
system.cpu0.iq.FU_type_0::IntDiv                 2590      0.08%     58.48% # Type of FU issued
system.cpu0.iq.FU_type_0::FloatAdd             319437      9.44%     67.92% # Type of FU issued
system.cpu0.iq.FU_type_0::FloatCmp                  0      0.00%     67.92% # Type of FU issued
system.cpu0.iq.FU_type_0::FloatCvt                 32      0.00%     67.92% # Type of FU issued
system.cpu0.iq.FU_type_0::FloatMult                 0      0.00%     67.92% # Type of FU issued
system.cpu0.iq.FU_type_0::FloatMultAcc              0      0.00%     67.92% # Type of FU issued
system.cpu0.iq.FU_type_0::FloatDiv                  0      0.00%     67.92% # Type of FU issued
system.cpu0.iq.FU_type_0::FloatMisc                 0      0.00%     67.92% # Type of FU issued
system.cpu0.iq.FU_type_0::FloatSqrt                 0      0.00%     67.92% # Type of FU issued
system.cpu0.iq.FU_type_0::SimdAdd                   0      0.00%     67.92% # Type of FU issued
system.cpu0.iq.FU_type_0::SimdAddAcc                0      0.00%     67.92% # Type of FU issued
system.cpu0.iq.FU_type_0::SimdAlu                   0      0.00%     67.92% # Type of FU issued
system.cpu0.iq.FU_type_0::SimdCmp                   0      0.00%     67.92% # Type of FU issued
system.cpu0.iq.FU_type_0::SimdCvt                   0      0.00%     67.92% # Type of FU issued
system.cpu0.iq.FU_type_0::SimdMisc                  0      0.00%     67.92% # Type of FU issued
system.cpu0.iq.FU_type_0::SimdMult                  0      0.00%     67.92% # Type of FU issued
system.cpu0.iq.FU_type_0::SimdMultAcc               0      0.00%     67.92% # Type of FU issued
system.cpu0.iq.FU_type_0::SimdShift                 0      0.00%     67.92% # Type of FU issued
system.cpu0.iq.FU_type_0::SimdShiftAcc              0      0.00%     67.92% # Type of FU issued
system.cpu0.iq.FU_type_0::SimdSqrt                  0      0.00%     67.92% # Type of FU issued
system.cpu0.iq.FU_type_0::SimdFloatAdd              0      0.00%     67.92% # Type of FU issued
system.cpu0.iq.FU_type_0::SimdFloatAlu              0      0.00%     67.92% # Type of FU issued
system.cpu0.iq.FU_type_0::SimdFloatCmp              0      0.00%     67.92% # Type of FU issued
system.cpu0.iq.FU_type_0::SimdFloatCvt              0      0.00%     67.92% # Type of FU issued
system.cpu0.iq.FU_type_0::SimdFloatDiv              0      0.00%     67.92% # Type of FU issued
system.cpu0.iq.FU_type_0::SimdFloatMisc             0      0.00%     67.92% # Type of FU issued
system.cpu0.iq.FU_type_0::SimdFloatMult             0      0.00%     67.92% # Type of FU issued
system.cpu0.iq.FU_type_0::SimdFloatMultAcc            0      0.00%     67.92% # Type of FU issued
system.cpu0.iq.FU_type_0::SimdFloatSqrt             0      0.00%     67.92% # Type of FU issued
system.cpu0.iq.FU_type_0::MemRead              831870     24.57%     92.49% # Type of FU issued
system.cpu0.iq.FU_type_0::MemWrite              96913      2.86%     95.35% # Type of FU issued
system.cpu0.iq.FU_type_0::FloatMemRead         118339      3.50%     98.85% # Type of FU issued
system.cpu0.iq.FU_type_0::FloatMemWrite         39056      1.15%    100.00% # Type of FU issued
system.cpu0.iq.FU_type_0::IprAccess                 0      0.00%    100.00% # Type of FU issued
system.cpu0.iq.FU_type_0::InstPrefetch              0      0.00%    100.00% # Type of FU issued
system.cpu0.iq.FU_type_0::total               3385425                       # Type of FU issued
system.cpu0.iq.rate                          2.315023                       # Inst issue rate
system.cpu0.iq.fu_busy_cnt                      33379                       # FU busy when requested
system.cpu0.iq.fu_busy_rate                  0.009860                       # FU busy rate (busy events/executed inst)
system.cpu0.iq.int_inst_queue_reads           7194029                       # Number of integer instruction queue reads
system.cpu0.iq.int_inst_queue_writes          3569166                       # Number of integer instruction queue writes
system.cpu0.iq.int_inst_queue_wakeup_accesses      2854646                       # Number of integer instruction queue wakeup accesses
system.cpu0.iq.fp_inst_queue_reads             964795                       # Number of floating instruction queue reads
system.cpu0.iq.fp_inst_queue_writes            521057                       # Number of floating instruction queue writes
system.cpu0.iq.fp_inst_queue_wakeup_accesses       475248                       # Number of floating instruction queue wakeup accesses
system.cpu0.iq.vec_inst_queue_reads                 0                       # Number of vector instruction queue reads
system.cpu0.iq.vec_inst_queue_writes                0                       # Number of vector instruction queue writes
system.cpu0.iq.vec_inst_queue_wakeup_accesses            0                       # Number of vector instruction queue wakeup accesses
system.cpu0.iq.int_alu_accesses               2925207                       # Number of integer alu accesses
system.cpu0.iq.fp_alu_accesses                 483299                       # Number of floating point alu accesses
system.cpu0.iq.vec_alu_accesses                     0                       # Number of vector alu accesses
system.cpu0.iew.lsq.thread0.forwLoads          206062                       # Number of loads that had data forwarded from stores
system.cpu0.iew.lsq.thread0.invAddrLoads            0                       # Number of loads ignored due to an invalid address
system.cpu0.iew.lsq.thread0.squashedLoads        85398                       # Number of loads squashed
system.cpu0.iew.lsq.thread0.ignoredResponses          122                       # Number of memory responses ignored because the instruction is squashed
system.cpu0.iew.lsq.thread0.memOrderViolation          139                       # Number of memory ordering violations
system.cpu0.iew.lsq.thread0.squashedStores        19744                       # Number of stores squashed
system.cpu0.iew.lsq.thread0.invAddrSwpfs            0                       # Number of software prefetches ignored due to an invalid address
system.cpu0.iew.lsq.thread0.blockedLoads            0                       # Number of blocked loads due to partial load-store forwarding
system.cpu0.iew.lsq.thread0.rescheduledLoads          211                       # Number of loads that were rescheduled
system.cpu0.iew.lsq.thread0.cacheBlocked          907                       # Number of times an access to memory failed due to the cache being blocked
system.cpu0.iew.iewIdleCycles                       0                       # Number of cycles IEW is idle
system.cpu0.iew.iewSquashCycles                 14584                       # Number of cycles IEW is squashing
system.cpu0.iew.iewBlockCycles                 156080                       # Number of cycles IEW is blocking
system.cpu0.iew.iewUnblockCycles                14173                       # Number of cycles IEW is unblocking
system.cpu0.iew.iewDispatchedInsts            3557514                       # Number of instructions dispatched to IQ
system.cpu0.iew.iewDispSquashedInsts              303                       # Number of squashed instructions skipped by dispatch
system.cpu0.iew.iewDispLoadInsts               968404                       # Number of dispatched load instructions
system.cpu0.iew.iewDispStoreInsts              143079                       # Number of dispatched store instructions
system.cpu0.iew.iewDispNonSpecInsts               403                       # Number of dispatched non-speculative instructions
system.cpu0.iew.iewIQFullEvents                   797                       # Number of times the IQ has become full, causing a stall
system.cpu0.iew.iewLSQFullEvents                12995                       # Number of times the LSQ has become full, causing a stall
system.cpu0.iew.memOrderViolationEvents           139                       # Number of memory order violations
system.cpu0.iew.predictedTakenIncorrect          5545                       # Number of branches that were predicted taken incorrectly
system.cpu0.iew.predictedNotTakenIncorrect        12259                       # Number of branches that were predicted not taken incorrectly
system.cpu0.iew.branchMispredicts               17804                       # Number of branch mispredicts detected at execute
system.cpu0.iew.iewExecutedInsts              3351401                       # Number of executed instructions
system.cpu0.iew.iewExecLoadInsts               940679                       # Number of load instructions executed
system.cpu0.iew.iewExecSquashedInsts            34022                       # Number of squashed instructions skipped in execute
system.cpu0.iew.exec_swp                            0                       # number of swp insts executed
system.cpu0.iew.exec_nop                            0                       # number of nop insts executed
system.cpu0.iew.exec_refs                     1074632                       # number of memory reference insts executed
system.cpu0.iew.exec_branches                  163468                       # Number of branches executed
system.cpu0.iew.exec_stores                    133953                       # Number of stores executed
system.cpu0.iew.exec_rate                    2.291757                       # Inst execution rate
system.cpu0.iew.wb_sent                       3337943                       # cumulative count of insts sent to commit
system.cpu0.iew.wb_count                      3329894                       # cumulative count of insts written-back
system.cpu0.iew.wb_producers                  2639387                       # num instructions producing a value
system.cpu0.iew.wb_consumers                  3615425                       # num instructions consuming a value
system.cpu0.iew.wb_rate                      2.277050                       # insts written-back per cycle
system.cpu0.iew.wb_fanout                    0.730035                       # average fanout of values written-back
system.cpu0.commit.commitSquashedInsts         532618                       # The number of squashed insts skipped by commit
system.cpu0.commit.commitNonSpecStalls            237                       # The number of times commit has been forced to stall to communicate backwards
system.cpu0.commit.branchMispredicts            14491                       # The number of times a branch was mispredicted
system.cpu0.commit.committed_per_cycle::samples      1268498                       # Number of insts commited each cycle
system.cpu0.commit.committed_per_cycle::mean     2.384638                       # Number of insts commited each cycle
system.cpu0.commit.committed_per_cycle::stdev     3.201506                       # Number of insts commited each cycle
system.cpu0.commit.committed_per_cycle::underflows            0      0.00%      0.00% # Number of insts commited each cycle
system.cpu0.commit.committed_per_cycle::0       646900     51.00%     51.00% # Number of insts commited each cycle
system.cpu0.commit.committed_per_cycle::1       142694     11.25%     62.25% # Number of insts commited each cycle
system.cpu0.commit.committed_per_cycle::2        53235      4.20%     66.44% # Number of insts commited each cycle
system.cpu0.commit.committed_per_cycle::3        64206      5.06%     71.50% # Number of insts commited each cycle
system.cpu0.commit.committed_per_cycle::4        52205      4.12%     75.62% # Number of insts commited each cycle
system.cpu0.commit.committed_per_cycle::5        21736      1.71%     77.33% # Number of insts commited each cycle
system.cpu0.commit.committed_per_cycle::6         9809      0.77%     78.11% # Number of insts commited each cycle
system.cpu0.commit.committed_per_cycle::7        14932      1.18%     79.28% # Number of insts commited each cycle
system.cpu0.commit.committed_per_cycle::8       262781     20.72%    100.00% # Number of insts commited each cycle
system.cpu0.commit.committed_per_cycle::overflows            0      0.00%    100.00% # Number of insts commited each cycle
system.cpu0.commit.committed_per_cycle::min_value            0                       # Number of insts commited each cycle
system.cpu0.commit.committed_per_cycle::max_value            8                       # Number of insts commited each cycle
system.cpu0.commit.committed_per_cycle::total      1268498                       # Number of insts commited each cycle
system.cpu0.commit.committedInsts             1976616                       # Number of instructions committed
system.cpu0.commit.committedOps               3024908                       # Number of ops (including micro ops) committed
system.cpu0.commit.swp_count                        0                       # Number of s/w prefetches committed
system.cpu0.commit.refs                       1006335                       # Number of memory references committed
system.cpu0.commit.loads                       883000                       # Number of loads committed
system.cpu0.commit.membars                         48                       # Number of memory barriers committed
system.cpu0.commit.branches                    140991                       # Number of branches committed
system.cpu0.commit.vec_insts                        0                       # Number of committed Vector instructions.
system.cpu0.commit.fp_insts                    465371                       # Number of committed floating point instructions.
system.cpu0.commit.int_insts                  2710753                       # Number of committed integer instructions.
system.cpu0.commit.function_calls                4337                       # Number of function calls committed.
system.cpu0.commit.op_class_0::No_OpClass         4222      0.14%      0.14% # Class of committed instruction
system.cpu0.commit.op_class_0::IntAlu         1626625     53.77%     53.91% # Class of committed instruction
system.cpu0.commit.op_class_0::IntMult          74950      2.48%     56.39% # Class of committed instruction
system.cpu0.commit.op_class_0::IntDiv            2317      0.08%     56.47% # Class of committed instruction
system.cpu0.commit.op_class_0::FloatAdd        310427     10.26%     66.73% # Class of committed instruction
system.cpu0.commit.op_class_0::FloatCmp             0      0.00%     66.73% # Class of committed instruction
system.cpu0.commit.op_class_0::FloatCvt            32      0.00%     66.73% # Class of committed instruction
system.cpu0.commit.op_class_0::FloatMult            0      0.00%     66.73% # Class of committed instruction
system.cpu0.commit.op_class_0::FloatMultAcc            0      0.00%     66.73% # Class of committed instruction
system.cpu0.commit.op_class_0::FloatDiv             0      0.00%     66.73% # Class of committed instruction
system.cpu0.commit.op_class_0::FloatMisc            0      0.00%     66.73% # Class of committed instruction
system.cpu0.commit.op_class_0::FloatSqrt            0      0.00%     66.73% # Class of committed instruction
system.cpu0.commit.op_class_0::SimdAdd              0      0.00%     66.73% # Class of committed instruction
system.cpu0.commit.op_class_0::SimdAddAcc            0      0.00%     66.73% # Class of committed instruction
system.cpu0.commit.op_class_0::SimdAlu              0      0.00%     66.73% # Class of committed instruction
system.cpu0.commit.op_class_0::SimdCmp              0      0.00%     66.73% # Class of committed instruction
system.cpu0.commit.op_class_0::SimdCvt              0      0.00%     66.73% # Class of committed instruction
system.cpu0.commit.op_class_0::SimdMisc             0      0.00%     66.73% # Class of committed instruction
system.cpu0.commit.op_class_0::SimdMult             0      0.00%     66.73% # Class of committed instruction
system.cpu0.commit.op_class_0::SimdMultAcc            0      0.00%     66.73% # Class of committed instruction
system.cpu0.commit.op_class_0::SimdShift            0      0.00%     66.73% # Class of committed instruction
system.cpu0.commit.op_class_0::SimdShiftAcc            0      0.00%     66.73% # Class of committed instruction
system.cpu0.commit.op_class_0::SimdSqrt             0      0.00%     66.73% # Class of committed instruction
system.cpu0.commit.op_class_0::SimdFloatAdd            0      0.00%     66.73% # Class of committed instruction
system.cpu0.commit.op_class_0::SimdFloatAlu            0      0.00%     66.73% # Class of committed instruction
system.cpu0.commit.op_class_0::SimdFloatCmp            0      0.00%     66.73% # Class of committed instruction
system.cpu0.commit.op_class_0::SimdFloatCvt            0      0.00%     66.73% # Class of committed instruction
system.cpu0.commit.op_class_0::SimdFloatDiv            0      0.00%     66.73% # Class of committed instruction
system.cpu0.commit.op_class_0::SimdFloatMisc            0      0.00%     66.73% # Class of committed instruction
system.cpu0.commit.op_class_0::SimdFloatMult            0      0.00%     66.73% # Class of committed instruction
system.cpu0.commit.op_class_0::SimdFloatMultAcc            0      0.00%     66.73% # Class of committed instruction
system.cpu0.commit.op_class_0::SimdFloatSqrt            0      0.00%     66.73% # Class of committed instruction
system.cpu0.commit.op_class_0::MemRead         769038     25.42%     92.16% # Class of committed instruction
system.cpu0.commit.op_class_0::MemWrite         84980      2.81%     94.96% # Class of committed instruction
system.cpu0.commit.op_class_0::FloatMemRead       113962      3.77%     98.73% # Class of committed instruction
system.cpu0.commit.op_class_0::FloatMemWrite        38355      1.27%    100.00% # Class of committed instruction
system.cpu0.commit.op_class_0::IprAccess            0      0.00%    100.00% # Class of committed instruction
system.cpu0.commit.op_class_0::InstPrefetch            0      0.00%    100.00% # Class of committed instruction
system.cpu0.commit.op_class_0::total          3024908                       # Class of committed instruction
system.cpu0.commit.bw_lim_events               262781                       # number cycles where commit BW limit reached
system.cpu0.rob.rob_reads                     4563243                       # The number of ROB reads
system.cpu0.rob.rob_writes                    7193748                       # The number of ROB writes
system.cpu0.timesIdled                            773                       # Number of times that the entire CPU went into an idle state and unscheduled itself
system.cpu0.idleCycles                         115918                       # Total number of cycles that the CPU has spent unscheduled due to idling
system.cpu0.committedInsts                    1976616                       # Number of Instructions Simulated
system.cpu0.committedOps                      3024908                       # Number of Ops (including micro ops) Simulated
system.cpu0.cpi                              0.739836                       # CPI: Cycles Per Instruction
system.cpu0.cpi_total                        0.739836                       # CPI: Total CPI of All Threads
system.cpu0.ipc                              1.351651                       # IPC: Instructions Per Cycle
system.cpu0.ipc_total                        1.351651                       # IPC: Total IPC of All Threads
system.cpu0.int_regfile_reads                 5170908                       # number of integer regfile reads
system.cpu0.int_regfile_writes                2679926                       # number of integer regfile writes
system.cpu0.fp_regfile_reads                   314197                       # number of floating regfile reads
system.cpu0.fp_regfile_writes                  433587                       # number of floating regfile writes
system.cpu0.cc_regfile_reads                   896043                       # number of cc regfile reads
system.cpu0.cc_regfile_writes                 1424825                       # number of cc regfile writes
system.cpu0.misc_regfile_reads                1428643                       # number of misc regfile reads
system.cpu0.misc_regfile_writes                    18                       # number of misc regfile writes
system.cpu0.dcache.tags.pwrStateResidencyTicks::UNDEFINED    486969543                       # Cumulative time (in ticks) in various power states
system.cpu0.dcache.tags.replacements             3717                       # number of replacements
system.cpu0.dcache.tags.tagsinuse          487.194642                       # Cycle average of tags in use
system.cpu0.dcache.tags.total_refs             839599                       # Total number of references to valid blocks.
system.cpu0.dcache.tags.sampled_refs             4229                       # Sample count of references to valid blocks.
system.cpu0.dcache.tags.avg_refs           198.533696                       # Average number of references to valid blocks.
system.cpu0.dcache.tags.warmup_cycle           175158                       # Cycle when the warmup percentage was hit.
system.cpu0.dcache.tags.occ_blocks::cpu0.data   487.194642                       # Average occupied blocks per requestor
system.cpu0.dcache.tags.occ_percent::cpu0.data     0.951552                       # Average percentage of cache occupancy
system.cpu0.dcache.tags.occ_percent::total     0.951552                       # Average percentage of cache occupancy
system.cpu0.dcache.tags.occ_task_id_blocks::1024          512                       # Occupied blocks per task id
system.cpu0.dcache.tags.age_task_id_blocks_1024::0           20                       # Occupied blocks per task id
system.cpu0.dcache.tags.age_task_id_blocks_1024::1          183                       # Occupied blocks per task id
system.cpu0.dcache.tags.age_task_id_blocks_1024::2          309                       # Occupied blocks per task id
system.cpu0.dcache.tags.occ_task_id_percent::1024            1                       # Percentage of cache occupancy per task id
system.cpu0.dcache.tags.tag_accesses          6856621                       # Number of tag accesses
system.cpu0.dcache.tags.data_accesses         6856621                       # Number of data accesses
system.cpu0.dcache.pwrStateResidencyTicks::UNDEFINED    486969543                       # Cumulative time (in ticks) in various power states
system.cpu0.dcache.ReadReq_hits::cpu0.data       716682                       # number of ReadReq hits
system.cpu0.dcache.ReadReq_hits::total         716682                       # number of ReadReq hits
system.cpu0.dcache.WriteReq_hits::cpu0.data       122910                       # number of WriteReq hits
system.cpu0.dcache.WriteReq_hits::total        122910                       # number of WriteReq hits
system.cpu0.dcache.demand_hits::cpu0.data       839592                       # number of demand (read+write) hits
system.cpu0.dcache.demand_hits::total          839592                       # number of demand (read+write) hits
system.cpu0.dcache.overall_hits::cpu0.data       839592                       # number of overall hits
system.cpu0.dcache.overall_hits::total         839592                       # number of overall hits
system.cpu0.dcache.ReadReq_misses::cpu0.data        16342                       # number of ReadReq misses
system.cpu0.dcache.ReadReq_misses::total        16342                       # number of ReadReq misses
system.cpu0.dcache.WriteReq_misses::cpu0.data          615                       # number of WriteReq misses
system.cpu0.dcache.WriteReq_misses::total          615                       # number of WriteReq misses
system.cpu0.dcache.demand_misses::cpu0.data        16957                       # number of demand (read+write) misses
system.cpu0.dcache.demand_misses::total         16957                       # number of demand (read+write) misses
system.cpu0.dcache.overall_misses::cpu0.data        16957                       # number of overall misses
system.cpu0.dcache.overall_misses::total        16957                       # number of overall misses
system.cpu0.dcache.ReadReq_miss_latency::cpu0.data    801353844                       # number of ReadReq miss cycles
system.cpu0.dcache.ReadReq_miss_latency::total    801353844                       # number of ReadReq miss cycles
system.cpu0.dcache.WriteReq_miss_latency::cpu0.data     38006622                       # number of WriteReq miss cycles
system.cpu0.dcache.WriteReq_miss_latency::total     38006622                       # number of WriteReq miss cycles
system.cpu0.dcache.demand_miss_latency::cpu0.data    839360466                       # number of demand (read+write) miss cycles
system.cpu0.dcache.demand_miss_latency::total    839360466                       # number of demand (read+write) miss cycles
system.cpu0.dcache.overall_miss_latency::cpu0.data    839360466                       # number of overall miss cycles
system.cpu0.dcache.overall_miss_latency::total    839360466                       # number of overall miss cycles
system.cpu0.dcache.ReadReq_accesses::cpu0.data       733024                       # number of ReadReq accesses(hits+misses)
system.cpu0.dcache.ReadReq_accesses::total       733024                       # number of ReadReq accesses(hits+misses)
system.cpu0.dcache.WriteReq_accesses::cpu0.data       123525                       # number of WriteReq accesses(hits+misses)
system.cpu0.dcache.WriteReq_accesses::total       123525                       # number of WriteReq accesses(hits+misses)
system.cpu0.dcache.demand_accesses::cpu0.data       856549                       # number of demand (read+write) accesses
system.cpu0.dcache.demand_accesses::total       856549                       # number of demand (read+write) accesses
system.cpu0.dcache.overall_accesses::cpu0.data       856549                       # number of overall (read+write) accesses
system.cpu0.dcache.overall_accesses::total       856549                       # number of overall (read+write) accesses
system.cpu0.dcache.ReadReq_miss_rate::cpu0.data     0.022294                       # miss rate for ReadReq accesses
system.cpu0.dcache.ReadReq_miss_rate::total     0.022294                       # miss rate for ReadReq accesses
system.cpu0.dcache.WriteReq_miss_rate::cpu0.data     0.004979                       # miss rate for WriteReq accesses
system.cpu0.dcache.WriteReq_miss_rate::total     0.004979                       # miss rate for WriteReq accesses
system.cpu0.dcache.demand_miss_rate::cpu0.data     0.019797                       # miss rate for demand accesses
system.cpu0.dcache.demand_miss_rate::total     0.019797                       # miss rate for demand accesses
system.cpu0.dcache.overall_miss_rate::cpu0.data     0.019797                       # miss rate for overall accesses
system.cpu0.dcache.overall_miss_rate::total     0.019797                       # miss rate for overall accesses
system.cpu0.dcache.ReadReq_avg_miss_latency::cpu0.data 49036.460898                       # average ReadReq miss latency
system.cpu0.dcache.ReadReq_avg_miss_latency::total 49036.460898                       # average ReadReq miss latency
system.cpu0.dcache.WriteReq_avg_miss_latency::cpu0.data 61799.385366                       # average WriteReq miss latency
system.cpu0.dcache.WriteReq_avg_miss_latency::total 61799.385366                       # average WriteReq miss latency
system.cpu0.dcache.demand_avg_miss_latency::cpu0.data 49499.349295                       # average overall miss latency
system.cpu0.dcache.demand_avg_miss_latency::total 49499.349295                       # average overall miss latency
system.cpu0.dcache.overall_avg_miss_latency::cpu0.data 49499.349295                       # average overall miss latency
system.cpu0.dcache.overall_avg_miss_latency::total 49499.349295                       # average overall miss latency
system.cpu0.dcache.blocked_cycles::no_mshrs        23501                       # number of cycles access was blocked
system.cpu0.dcache.blocked_cycles::no_targets          505                       # number of cycles access was blocked
system.cpu0.dcache.blocked::no_mshrs              377                       # number of cycles access was blocked
system.cpu0.dcache.blocked::no_targets              7                       # number of cycles access was blocked
system.cpu0.dcache.avg_blocked_cycles::no_mshrs    62.336870                       # average number of cycles each access was blocked
system.cpu0.dcache.avg_blocked_cycles::no_targets    72.142857                       # average number of cycles each access was blocked
system.cpu0.dcache.writebacks::writebacks          884                       # number of writebacks
system.cpu0.dcache.writebacks::total              884                       # number of writebacks
system.cpu0.dcache.ReadReq_mshr_hits::cpu0.data        12716                       # number of ReadReq MSHR hits
system.cpu0.dcache.ReadReq_mshr_hits::total        12716                       # number of ReadReq MSHR hits
system.cpu0.dcache.WriteReq_mshr_hits::cpu0.data            6                       # number of WriteReq MSHR hits
system.cpu0.dcache.WriteReq_mshr_hits::total            6                       # number of WriteReq MSHR hits
system.cpu0.dcache.demand_mshr_hits::cpu0.data        12722                       # number of demand (read+write) MSHR hits
system.cpu0.dcache.demand_mshr_hits::total        12722                       # number of demand (read+write) MSHR hits
system.cpu0.dcache.overall_mshr_hits::cpu0.data        12722                       # number of overall MSHR hits
system.cpu0.dcache.overall_mshr_hits::total        12722                       # number of overall MSHR hits
system.cpu0.dcache.ReadReq_mshr_misses::cpu0.data         3626                       # number of ReadReq MSHR misses
system.cpu0.dcache.ReadReq_mshr_misses::total         3626                       # number of ReadReq MSHR misses
system.cpu0.dcache.WriteReq_mshr_misses::cpu0.data          609                       # number of WriteReq MSHR misses
system.cpu0.dcache.WriteReq_mshr_misses::total          609                       # number of WriteReq MSHR misses
system.cpu0.dcache.demand_mshr_misses::cpu0.data         4235                       # number of demand (read+write) MSHR misses
system.cpu0.dcache.demand_mshr_misses::total         4235                       # number of demand (read+write) MSHR misses
system.cpu0.dcache.overall_mshr_misses::cpu0.data         4235                       # number of overall MSHR misses
system.cpu0.dcache.overall_mshr_misses::total         4235                       # number of overall MSHR misses
system.cpu0.dcache.ReadReq_mshr_miss_latency::cpu0.data    195354783                       # number of ReadReq MSHR miss cycles
system.cpu0.dcache.ReadReq_mshr_miss_latency::total    195354783                       # number of ReadReq MSHR miss cycles
system.cpu0.dcache.WriteReq_mshr_miss_latency::cpu0.data     37376253                       # number of WriteReq MSHR miss cycles
system.cpu0.dcache.WriteReq_mshr_miss_latency::total     37376253                       # number of WriteReq MSHR miss cycles
system.cpu0.dcache.demand_mshr_miss_latency::cpu0.data    232731036                       # number of demand (read+write) MSHR miss cycles
system.cpu0.dcache.demand_mshr_miss_latency::total    232731036                       # number of demand (read+write) MSHR miss cycles
system.cpu0.dcache.overall_mshr_miss_latency::cpu0.data    232731036                       # number of overall MSHR miss cycles
system.cpu0.dcache.overall_mshr_miss_latency::total    232731036                       # number of overall MSHR miss cycles
system.cpu0.dcache.ReadReq_mshr_miss_rate::cpu0.data     0.004947                       # mshr miss rate for ReadReq accesses
system.cpu0.dcache.ReadReq_mshr_miss_rate::total     0.004947                       # mshr miss rate for ReadReq accesses
system.cpu0.dcache.WriteReq_mshr_miss_rate::cpu0.data     0.004930                       # mshr miss rate for WriteReq accesses
system.cpu0.dcache.WriteReq_mshr_miss_rate::total     0.004930                       # mshr miss rate for WriteReq accesses
system.cpu0.dcache.demand_mshr_miss_rate::cpu0.data     0.004944                       # mshr miss rate for demand accesses
system.cpu0.dcache.demand_mshr_miss_rate::total     0.004944                       # mshr miss rate for demand accesses
system.cpu0.dcache.overall_mshr_miss_rate::cpu0.data     0.004944                       # mshr miss rate for overall accesses
system.cpu0.dcache.overall_mshr_miss_rate::total     0.004944                       # mshr miss rate for overall accesses
system.cpu0.dcache.ReadReq_avg_mshr_miss_latency::cpu0.data 53876.112245                       # average ReadReq mshr miss latency
system.cpu0.dcache.ReadReq_avg_mshr_miss_latency::total 53876.112245                       # average ReadReq mshr miss latency
system.cpu0.dcache.WriteReq_avg_mshr_miss_latency::cpu0.data 61373.157635                       # average WriteReq mshr miss latency
system.cpu0.dcache.WriteReq_avg_mshr_miss_latency::total 61373.157635                       # average WriteReq mshr miss latency
system.cpu0.dcache.demand_avg_mshr_miss_latency::cpu0.data 54954.199764                       # average overall mshr miss latency
system.cpu0.dcache.demand_avg_mshr_miss_latency::total 54954.199764                       # average overall mshr miss latency
system.cpu0.dcache.overall_avg_mshr_miss_latency::cpu0.data 54954.199764                       # average overall mshr miss latency
system.cpu0.dcache.overall_avg_mshr_miss_latency::total 54954.199764                       # average overall mshr miss latency
system.cpu0.dtb_walker_cache.tags.pwrStateResidencyTicks::UNDEFINED    486969543                       # Cumulative time (in ticks) in various power states
system.cpu0.dtb_walker_cache.tags.replacements            0                       # number of replacements
system.cpu0.dtb_walker_cache.tags.tagsinuse            0                       # Cycle average of tags in use
system.cpu0.dtb_walker_cache.tags.total_refs            0                       # Total number of references to valid blocks.
system.cpu0.dtb_walker_cache.tags.sampled_refs            0                       # Sample count of references to valid blocks.
system.cpu0.dtb_walker_cache.tags.avg_refs          nan                       # Average number of references to valid blocks.
system.cpu0.dtb_walker_cache.tags.warmup_cycle            0                       # Cycle when the warmup percentage was hit.
system.cpu0.dtb_walker_cache.tags.tag_accesses            0                       # Number of tag accesses
system.cpu0.dtb_walker_cache.tags.data_accesses            0                       # Number of data accesses
system.cpu0.dtb_walker_cache.pwrStateResidencyTicks::UNDEFINED    486969543                       # Cumulative time (in ticks) in various power states
system.cpu0.dtb_walker_cache.blocked_cycles::no_mshrs            0                       # number of cycles access was blocked
system.cpu0.dtb_walker_cache.blocked_cycles::no_targets            0                       # number of cycles access was blocked
system.cpu0.dtb_walker_cache.blocked::no_mshrs            0                       # number of cycles access was blocked
system.cpu0.dtb_walker_cache.blocked::no_targets            0                       # number of cycles access was blocked
system.cpu0.dtb_walker_cache.avg_blocked_cycles::no_mshrs          nan                       # average number of cycles each access was blocked
system.cpu0.dtb_walker_cache.avg_blocked_cycles::no_targets          nan                       # average number of cycles each access was blocked
system.cpu0.icache.tags.pwrStateResidencyTicks::UNDEFINED    486969543                       # Cumulative time (in ticks) in various power states
system.cpu0.icache.tags.replacements              853                       # number of replacements
system.cpu0.icache.tags.tagsinuse          493.513788                       # Cycle average of tags in use
system.cpu0.icache.tags.total_refs             266037                       # Total number of references to valid blocks.
system.cpu0.icache.tags.sampled_refs             1365                       # Sample count of references to valid blocks.
system.cpu0.icache.tags.avg_refs           194.898901                       # Average number of references to valid blocks.
system.cpu0.icache.tags.warmup_cycle            81252                       # Cycle when the warmup percentage was hit.
system.cpu0.icache.tags.occ_blocks::cpu0.inst   493.513788                       # Average occupied blocks per requestor
system.cpu0.icache.tags.occ_percent::cpu0.inst     0.963894                       # Average percentage of cache occupancy
system.cpu0.icache.tags.occ_percent::total     0.963894                       # Average percentage of cache occupancy
system.cpu0.icache.tags.occ_task_id_blocks::1024          512                       # Occupied blocks per task id
system.cpu0.icache.tags.age_task_id_blocks_1024::2          512                       # Occupied blocks per task id
system.cpu0.icache.tags.occ_task_id_percent::1024            1                       # Percentage of cache occupancy per task id
system.cpu0.icache.tags.tag_accesses          2143847                       # Number of tag accesses
system.cpu0.icache.tags.data_accesses         2143847                       # Number of data accesses
system.cpu0.icache.pwrStateResidencyTicks::UNDEFINED    486969543                       # Cumulative time (in ticks) in various power states
system.cpu0.icache.ReadReq_hits::cpu0.inst       266037                       # number of ReadReq hits
system.cpu0.icache.ReadReq_hits::total         266037                       # number of ReadReq hits
system.cpu0.icache.demand_hits::cpu0.inst       266037                       # number of demand (read+write) hits
system.cpu0.icache.demand_hits::total          266037                       # number of demand (read+write) hits
system.cpu0.icache.overall_hits::cpu0.inst       266037                       # number of overall hits
system.cpu0.icache.overall_hits::total         266037                       # number of overall hits
system.cpu0.icache.ReadReq_misses::cpu0.inst         1773                       # number of ReadReq misses
system.cpu0.icache.ReadReq_misses::total         1773                       # number of ReadReq misses
system.cpu0.icache.demand_misses::cpu0.inst         1773                       # number of demand (read+write) misses
system.cpu0.icache.demand_misses::total          1773                       # number of demand (read+write) misses
system.cpu0.icache.overall_misses::cpu0.inst         1773                       # number of overall misses
system.cpu0.icache.overall_misses::total         1773                       # number of overall misses
system.cpu0.icache.ReadReq_miss_latency::cpu0.inst    107778446                       # number of ReadReq miss cycles
system.cpu0.icache.ReadReq_miss_latency::total    107778446                       # number of ReadReq miss cycles
system.cpu0.icache.demand_miss_latency::cpu0.inst    107778446                       # number of demand (read+write) miss cycles
system.cpu0.icache.demand_miss_latency::total    107778446                       # number of demand (read+write) miss cycles
system.cpu0.icache.overall_miss_latency::cpu0.inst    107778446                       # number of overall miss cycles
system.cpu0.icache.overall_miss_latency::total    107778446                       # number of overall miss cycles
system.cpu0.icache.ReadReq_accesses::cpu0.inst       267810                       # number of ReadReq accesses(hits+misses)
system.cpu0.icache.ReadReq_accesses::total       267810                       # number of ReadReq accesses(hits+misses)
system.cpu0.icache.demand_accesses::cpu0.inst       267810                       # number of demand (read+write) accesses
system.cpu0.icache.demand_accesses::total       267810                       # number of demand (read+write) accesses
system.cpu0.icache.overall_accesses::cpu0.inst       267810                       # number of overall (read+write) accesses
system.cpu0.icache.overall_accesses::total       267810                       # number of overall (read+write) accesses
system.cpu0.icache.ReadReq_miss_rate::cpu0.inst     0.006620                       # miss rate for ReadReq accesses
system.cpu0.icache.ReadReq_miss_rate::total     0.006620                       # miss rate for ReadReq accesses
system.cpu0.icache.demand_miss_rate::cpu0.inst     0.006620                       # miss rate for demand accesses
system.cpu0.icache.demand_miss_rate::total     0.006620                       # miss rate for demand accesses
system.cpu0.icache.overall_miss_rate::cpu0.inst     0.006620                       # miss rate for overall accesses
system.cpu0.icache.overall_miss_rate::total     0.006620                       # miss rate for overall accesses
system.cpu0.icache.ReadReq_avg_miss_latency::cpu0.inst 60788.745629                       # average ReadReq miss latency
system.cpu0.icache.ReadReq_avg_miss_latency::total 60788.745629                       # average ReadReq miss latency
system.cpu0.icache.demand_avg_miss_latency::cpu0.inst 60788.745629                       # average overall miss latency
system.cpu0.icache.demand_avg_miss_latency::total 60788.745629                       # average overall miss latency
system.cpu0.icache.overall_avg_miss_latency::cpu0.inst 60788.745629                       # average overall miss latency
system.cpu0.icache.overall_avg_miss_latency::total 60788.745629                       # average overall miss latency
system.cpu0.icache.blocked_cycles::no_mshrs         1969                       # number of cycles access was blocked
system.cpu0.icache.blocked_cycles::no_targets            0                       # number of cycles access was blocked
system.cpu0.icache.blocked::no_mshrs               15                       # number of cycles access was blocked
system.cpu0.icache.blocked::no_targets              0                       # number of cycles access was blocked
system.cpu0.icache.avg_blocked_cycles::no_mshrs   131.266667                       # average number of cycles each access was blocked
system.cpu0.icache.avg_blocked_cycles::no_targets          nan                       # average number of cycles each access was blocked
system.cpu0.icache.writebacks::writebacks          853                       # number of writebacks
system.cpu0.icache.writebacks::total              853                       # number of writebacks
system.cpu0.icache.ReadReq_mshr_hits::cpu0.inst          406                       # number of ReadReq MSHR hits
system.cpu0.icache.ReadReq_mshr_hits::total          406                       # number of ReadReq MSHR hits
system.cpu0.icache.demand_mshr_hits::cpu0.inst          406                       # number of demand (read+write) MSHR hits
system.cpu0.icache.demand_mshr_hits::total          406                       # number of demand (read+write) MSHR hits
system.cpu0.icache.overall_mshr_hits::cpu0.inst          406                       # number of overall MSHR hits
system.cpu0.icache.overall_mshr_hits::total          406                       # number of overall MSHR hits
system.cpu0.icache.ReadReq_mshr_misses::cpu0.inst         1367                       # number of ReadReq MSHR misses
system.cpu0.icache.ReadReq_mshr_misses::total         1367                       # number of ReadReq MSHR misses
system.cpu0.icache.demand_mshr_misses::cpu0.inst         1367                       # number of demand (read+write) MSHR misses
system.cpu0.icache.demand_mshr_misses::total         1367                       # number of demand (read+write) MSHR misses
system.cpu0.icache.overall_mshr_misses::cpu0.inst         1367                       # number of overall MSHR misses
system.cpu0.icache.overall_mshr_misses::total         1367                       # number of overall MSHR misses
system.cpu0.icache.ReadReq_mshr_miss_latency::cpu0.inst     88424820                       # number of ReadReq MSHR miss cycles
system.cpu0.icache.ReadReq_mshr_miss_latency::total     88424820                       # number of ReadReq MSHR miss cycles
system.cpu0.icache.demand_mshr_miss_latency::cpu0.inst     88424820                       # number of demand (read+write) MSHR miss cycles
system.cpu0.icache.demand_mshr_miss_latency::total     88424820                       # number of demand (read+write) MSHR miss cycles
system.cpu0.icache.overall_mshr_miss_latency::cpu0.inst     88424820                       # number of overall MSHR miss cycles
system.cpu0.icache.overall_mshr_miss_latency::total     88424820                       # number of overall MSHR miss cycles
system.cpu0.icache.ReadReq_mshr_miss_rate::cpu0.inst     0.005104                       # mshr miss rate for ReadReq accesses
system.cpu0.icache.ReadReq_mshr_miss_rate::total     0.005104                       # mshr miss rate for ReadReq accesses
system.cpu0.icache.demand_mshr_miss_rate::cpu0.inst     0.005104                       # mshr miss rate for demand accesses
system.cpu0.icache.demand_mshr_miss_rate::total     0.005104                       # mshr miss rate for demand accesses
system.cpu0.icache.overall_mshr_miss_rate::cpu0.inst     0.005104                       # mshr miss rate for overall accesses
system.cpu0.icache.overall_mshr_miss_rate::total     0.005104                       # mshr miss rate for overall accesses
system.cpu0.icache.ReadReq_avg_mshr_miss_latency::cpu0.inst 64685.310900                       # average ReadReq mshr miss latency
system.cpu0.icache.ReadReq_avg_mshr_miss_latency::total 64685.310900                       # average ReadReq mshr miss latency
system.cpu0.icache.demand_avg_mshr_miss_latency::cpu0.inst 64685.310900                       # average overall mshr miss latency
system.cpu0.icache.demand_avg_mshr_miss_latency::total 64685.310900                       # average overall mshr miss latency
system.cpu0.icache.overall_avg_mshr_miss_latency::cpu0.inst 64685.310900                       # average overall mshr miss latency
system.cpu0.icache.overall_avg_mshr_miss_latency::total 64685.310900                       # average overall mshr miss latency
system.cpu0.itb_walker_cache.tags.pwrStateResidencyTicks::UNDEFINED    486969543                       # Cumulative time (in ticks) in various power states
system.cpu0.itb_walker_cache.tags.replacements            0                       # number of replacements
system.cpu0.itb_walker_cache.tags.tagsinuse            0                       # Cycle average of tags in use
system.cpu0.itb_walker_cache.tags.total_refs            0                       # Total number of references to valid blocks.
system.cpu0.itb_walker_cache.tags.sampled_refs            0                       # Sample count of references to valid blocks.
system.cpu0.itb_walker_cache.tags.avg_refs          nan                       # Average number of references to valid blocks.
system.cpu0.itb_walker_cache.tags.warmup_cycle            0                       # Cycle when the warmup percentage was hit.
system.cpu0.itb_walker_cache.tags.tag_accesses            0                       # Number of tag accesses
system.cpu0.itb_walker_cache.tags.data_accesses            0                       # Number of data accesses
system.cpu0.itb_walker_cache.pwrStateResidencyTicks::UNDEFINED    486969543                       # Cumulative time (in ticks) in various power states
system.cpu0.itb_walker_cache.blocked_cycles::no_mshrs            0                       # number of cycles access was blocked
system.cpu0.itb_walker_cache.blocked_cycles::no_targets            0                       # number of cycles access was blocked
system.cpu0.itb_walker_cache.blocked::no_mshrs            0                       # number of cycles access was blocked
system.cpu0.itb_walker_cache.blocked::no_targets            0                       # number of cycles access was blocked
system.cpu0.itb_walker_cache.avg_blocked_cycles::no_mshrs          nan                       # average number of cycles each access was blocked
system.cpu0.itb_walker_cache.avg_blocked_cycles::no_targets          nan                       # average number of cycles each access was blocked
system.cpu0.l2cache.tags.pwrStateResidencyTicks::UNDEFINED    486969543                       # Cumulative time (in ticks) in various power states
system.cpu0.l2cache.tags.replacements            1319                       # number of replacements
system.cpu0.l2cache.tags.tagsinuse        2956.748152                       # Cycle average of tags in use
system.cpu0.l2cache.tags.total_refs              5205                       # Total number of references to valid blocks.
system.cpu0.l2cache.tags.sampled_refs            4919                       # Sample count of references to valid blocks.
system.cpu0.l2cache.tags.avg_refs            1.058142                       # Average number of references to valid blocks.
system.cpu0.l2cache.tags.warmup_cycle           78000                       # Cycle when the warmup percentage was hit.
system.cpu0.l2cache.tags.occ_blocks::writebacks    78.360924                       # Average occupied blocks per requestor
system.cpu0.l2cache.tags.occ_blocks::cpu0.inst   825.425097                       # Average occupied blocks per requestor
system.cpu0.l2cache.tags.occ_blocks::cpu0.data  2052.962131                       # Average occupied blocks per requestor
system.cpu0.l2cache.tags.occ_percent::writebacks     0.019131                       # Average percentage of cache occupancy
system.cpu0.l2cache.tags.occ_percent::cpu0.inst     0.201520                       # Average percentage of cache occupancy
system.cpu0.l2cache.tags.occ_percent::cpu0.data     0.501211                       # Average percentage of cache occupancy
system.cpu0.l2cache.tags.occ_percent::total     0.721862                       # Average percentage of cache occupancy
system.cpu0.l2cache.tags.occ_task_id_blocks::1024         3600                       # Occupied blocks per task id
system.cpu0.l2cache.tags.age_task_id_blocks_1024::0           12                       # Occupied blocks per task id
system.cpu0.l2cache.tags.age_task_id_blocks_1024::1          105                       # Occupied blocks per task id
system.cpu0.l2cache.tags.age_task_id_blocks_1024::2         3483                       # Occupied blocks per task id
system.cpu0.l2cache.tags.occ_task_id_percent::1024     0.878906                       # Percentage of cache occupancy per task id
system.cpu0.l2cache.tags.tag_accesses           45511                       # Number of tag accesses
system.cpu0.l2cache.tags.data_accesses          45511                       # Number of data accesses
system.cpu0.l2cache.pwrStateResidencyTicks::UNDEFINED    486969543                       # Cumulative time (in ticks) in various power states
system.cpu0.l2cache.WritebackDirty_hits::writebacks          884                       # number of WritebackDirty hits
system.cpu0.l2cache.WritebackDirty_hits::total          884                       # number of WritebackDirty hits
system.cpu0.l2cache.WritebackClean_hits::writebacks          850                       # number of WritebackClean hits
system.cpu0.l2cache.WritebackClean_hits::total          850                       # number of WritebackClean hits
system.cpu0.l2cache.UpgradeReq_hits::cpu0.data            7                       # number of UpgradeReq hits
system.cpu0.l2cache.UpgradeReq_hits::total            7                       # number of UpgradeReq hits
system.cpu0.l2cache.ReadExReq_hits::cpu0.data           60                       # number of ReadExReq hits
system.cpu0.l2cache.ReadExReq_hits::total           60                       # number of ReadExReq hits
system.cpu0.l2cache.ReadCleanReq_hits::cpu0.inst           38                       # number of ReadCleanReq hits
system.cpu0.l2cache.ReadCleanReq_hits::total           38                       # number of ReadCleanReq hits
system.cpu0.l2cache.ReadSharedReq_hits::cpu0.data          735                       # number of ReadSharedReq hits
system.cpu0.l2cache.ReadSharedReq_hits::total          735                       # number of ReadSharedReq hits
system.cpu0.l2cache.demand_hits::cpu0.inst           38                       # number of demand (read+write) hits
system.cpu0.l2cache.demand_hits::cpu0.data          795                       # number of demand (read+write) hits
system.cpu0.l2cache.demand_hits::total            833                       # number of demand (read+write) hits
system.cpu0.l2cache.overall_hits::cpu0.inst           38                       # number of overall hits
system.cpu0.l2cache.overall_hits::cpu0.data          795                       # number of overall hits
system.cpu0.l2cache.overall_hits::total           833                       # number of overall hits
system.cpu0.l2cache.ReadExReq_misses::cpu0.data          543                       # number of ReadExReq misses
system.cpu0.l2cache.ReadExReq_misses::total          543                       # number of ReadExReq misses
system.cpu0.l2cache.ReadCleanReq_misses::cpu0.inst         1326                       # number of ReadCleanReq misses
system.cpu0.l2cache.ReadCleanReq_misses::total         1326                       # number of ReadCleanReq misses
system.cpu0.l2cache.ReadSharedReq_misses::cpu0.data         2891                       # number of ReadSharedReq misses
[...]
system.l3.demand_mshr_miss_latency::cpu0.data    177991747                       # number of demand (read+write) MSHR miss cycles
system.l3.demand_mshr_miss_latency::cpu1.inst     67510669                       # number of demand (read+write) MSHR miss cycles
system.l3.demand_mshr_miss_latency::cpu1.data    172641441                       # number of demand (read+write) MSHR miss cycles
system.l3.demand_mshr_miss_latency::cpu2.inst     71977338                       # number of demand (read+write) MSHR miss cycles
system.l3.demand_mshr_miss_latency::cpu2.data    169511668                       # number of demand (read+write) MSHR miss cycles
system.l3.demand_mshr_miss_latency::cpu3.inst     67160396                       # number of demand (read+write) MSHR miss cycles
system.l3.demand_mshr_miss_latency::cpu3.data    175804795                       # number of demand (read+write) MSHR miss cycles
system.l3.demand_mshr_miss_latency::total    971007178                       # number of demand (read+write) MSHR miss cycles
system.l3.overall_mshr_miss_latency::cpu0.inst     68409124                       # number of overall MSHR miss cycles
system.l3.overall_mshr_miss_latency::cpu0.data    177991747                       # number of overall MSHR miss cycles
system.l3.overall_mshr_miss_latency::cpu1.inst     67510669                       # number of overall MSHR miss cycles
system.l3.overall_mshr_miss_latency::cpu1.data    172641441                       # number of overall MSHR miss cycles
system.l3.overall_mshr_miss_latency::cpu2.inst     71977338                       # number of overall MSHR miss cycles
system.l3.overall_mshr_miss_latency::cpu2.data    169511668                       # number of overall MSHR miss cycles
system.l3.overall_mshr_miss_latency::cpu3.inst     67160396                       # number of overall MSHR miss cycles
system.l3.overall_mshr_miss_latency::cpu3.data    175804795                       # number of overall MSHR miss cycles
system.l3.overall_mshr_miss_latency::total    971007178                       # number of overall MSHR miss cycles
system.l3.ReadExReq_mshr_miss_rate::cpu0.data     0.985267                       # mshr miss rate for ReadExReq accesses
system.l3.ReadExReq_mshr_miss_rate::cpu1.data     0.979890                       # mshr miss rate for ReadExReq accesses
system.l3.ReadExReq_mshr_miss_rate::cpu2.data     0.974684                       # mshr miss rate for ReadExReq accesses
system.l3.ReadExReq_mshr_miss_rate::cpu3.data     0.965642                       # mshr miss rate for ReadExReq accesses
system.l3.ReadExReq_mshr_miss_rate::total     0.976321                       # mshr miss rate for ReadExReq accesses
system.l3.ReadSharedReq_mshr_miss_rate::cpu0.inst     0.997738                       # mshr miss rate for ReadSharedReq accesses
system.l3.ReadSharedReq_mshr_miss_rate::cpu0.data     0.989623                       # mshr miss rate for ReadSharedReq accesses
system.l3.ReadSharedReq_mshr_miss_rate::cpu1.inst     0.998491                       # mshr miss rate for ReadSharedReq accesses
system.l3.ReadSharedReq_mshr_miss_rate::cpu1.data     0.988577                       # mshr miss rate for ReadSharedReq accesses
system.l3.ReadSharedReq_mshr_miss_rate::cpu2.inst            1                       # mshr miss rate for ReadSharedReq accesses
system.l3.ReadSharedReq_mshr_miss_rate::cpu2.data     0.992321                       # mshr miss rate for ReadSharedReq accesses
system.l3.ReadSharedReq_mshr_miss_rate::cpu3.inst     0.997028                       # mshr miss rate for ReadSharedReq accesses
system.l3.ReadSharedReq_mshr_miss_rate::cpu3.data     0.987175                       # mshr miss rate for ReadSharedReq accesses
system.l3.ReadSharedReq_mshr_miss_rate::total     0.992233                       # mshr miss rate for ReadSharedReq accesses
system.l3.demand_mshr_miss_rate::cpu0.inst     0.997738                       # mshr miss rate for demand accesses
system.l3.demand_mshr_miss_rate::cpu0.data     0.988934                       # mshr miss rate for demand accesses
system.l3.demand_mshr_miss_rate::cpu1.inst     0.998491                       # mshr miss rate for demand accesses
system.l3.demand_mshr_miss_rate::cpu1.data     0.987194                       # mshr miss rate for demand accesses
system.l3.demand_mshr_miss_rate::cpu2.inst            1                       # mshr miss rate for demand accesses
system.l3.demand_mshr_miss_rate::cpu2.data     0.989468                       # mshr miss rate for demand accesses
system.l3.demand_mshr_miss_rate::cpu3.inst     0.997028                       # mshr miss rate for demand accesses
system.l3.demand_mshr_miss_rate::cpu3.data     0.983711                       # mshr miss rate for demand accesses
system.l3.demand_mshr_miss_rate::total       0.990400                       # mshr miss rate for demand accesses
system.l3.overall_mshr_miss_rate::cpu0.inst     0.997738                       # mshr miss rate for overall accesses
system.l3.overall_mshr_miss_rate::cpu0.data     0.988934                       # mshr miss rate for overall accesses
system.l3.overall_mshr_miss_rate::cpu1.inst     0.998491                       # mshr miss rate for overall accesses
system.l3.overall_mshr_miss_rate::cpu1.data     0.987194                       # mshr miss rate for overall accesses
system.l3.overall_mshr_miss_rate::cpu2.inst            1                       # mshr miss rate for overall accesses
system.l3.overall_mshr_miss_rate::cpu2.data     0.989468                       # mshr miss rate for overall accesses
system.l3.overall_mshr_miss_rate::cpu3.inst     0.997028                       # mshr miss rate for overall accesses
system.l3.overall_mshr_miss_rate::cpu3.data     0.983711                       # mshr miss rate for overall accesses
system.l3.overall_mshr_miss_rate::total      0.990400                       # mshr miss rate for overall accesses
system.l3.ReadExReq_avg_mshr_miss_latency::cpu0.data 54041.895327                       # average ReadExReq mshr miss latency
system.l3.ReadExReq_avg_mshr_miss_latency::cpu1.data 52022.305970                       # average ReadExReq mshr miss latency
system.l3.ReadExReq_avg_mshr_miss_latency::cpu2.data 48981.608534                       # average ReadExReq mshr miss latency
system.l3.ReadExReq_avg_mshr_miss_latency::cpu3.data 48450.428839                       # average ReadExReq mshr miss latency
system.l3.ReadExReq_avg_mshr_miss_latency::total 50872.194963                       # average ReadExReq mshr miss latency
system.l3.ReadSharedReq_avg_mshr_miss_latency::cpu0.inst 51707.576720                       # average ReadSharedReq mshr miss latency
system.l3.ReadSharedReq_avg_mshr_miss_latency::cpu0.data 52107.421531                       # average ReadSharedReq mshr miss latency
system.l3.ReadSharedReq_avg_mshr_miss_latency::cpu1.inst 51028.472411                       # average ReadSharedReq mshr miss latency
system.l3.ReadSharedReq_avg_mshr_miss_latency::cpu1.data 50685.393908                       # average ReadSharedReq mshr miss latency
system.l3.ReadSharedReq_avg_mshr_miss_latency::cpu2.inst 53714.431343                       # average ReadSharedReq mshr miss latency
system.l3.ReadSharedReq_avg_mshr_miss_latency::cpu2.data 50337.875835                       # average ReadSharedReq mshr miss latency
system.l3.ReadSharedReq_avg_mshr_miss_latency::cpu3.inst 50045.004471                       # average ReadSharedReq mshr miss latency
system.l3.ReadSharedReq_avg_mshr_miss_latency::cpu3.data 52644.756320                       # average ReadSharedReq mshr miss latency
system.l3.ReadSharedReq_avg_mshr_miss_latency::total 51501.983270                       # average ReadSharedReq mshr miss latency
system.l3.demand_avg_mshr_miss_latency::cpu0.inst 51707.576720                       # average overall mshr miss latency
system.l3.demand_avg_mshr_miss_latency::cpu0.data 52412.175206                       # average overall mshr miss latency
system.l3.demand_avg_mshr_miss_latency::cpu1.inst 51028.472411                       # average overall mshr miss latency
system.l3.demand_avg_mshr_miss_latency::cpu1.data 50896.651238                       # average overall mshr miss latency
system.l3.demand_avg_mshr_miss_latency::cpu2.inst 53714.431343                       # average overall mshr miss latency
system.l3.demand_avg_mshr_miss_latency::cpu2.data 50121.723241                       # average overall mshr miss latency
system.l3.demand_avg_mshr_miss_latency::cpu3.inst 50045.004471                       # average overall mshr miss latency
system.l3.demand_avg_mshr_miss_latency::cpu3.data 51982.494086                       # average overall mshr miss latency
system.l3.demand_avg_mshr_miss_latency::total 51430.464936                       # average overall mshr miss latency
system.l3.overall_avg_mshr_miss_latency::cpu0.inst 51707.576720                       # average overall mshr miss latency
system.l3.overall_avg_mshr_miss_latency::cpu0.data 52412.175206                       # average overall mshr miss latency
system.l3.overall_avg_mshr_miss_latency::cpu1.inst 51028.472411                       # average overall mshr miss latency
system.l3.overall_avg_mshr_miss_latency::cpu1.data 50896.651238                       # average overall mshr miss latency
system.l3.overall_avg_mshr_miss_latency::cpu2.inst 53714.431343                       # average overall mshr miss latency
system.l3.overall_avg_mshr_miss_latency::cpu2.data 50121.723241                       # average overall mshr miss latency
system.l3.overall_avg_mshr_miss_latency::cpu3.inst 50045.004471                       # average overall mshr miss latency
system.l3.overall_avg_mshr_miss_latency::cpu3.data 51982.494086                       # average overall mshr miss latency
system.l3.overall_avg_mshr_miss_latency::total 51430.464936                       # average overall mshr miss latency
system.membus.snoop_filter.tot_requests         18880                       # Total number of requests made to the snoop filter.
system.membus.snoop_filter.hit_single_requests            0                       # Number of requests hitting in the snoop filter with a single holder of the requested data.
system.membus.snoop_filter.hit_multi_requests            0                       # Number of requests hitting in the snoop filter with multiple (>1) holders of the requested data.
system.membus.snoop_filter.tot_snoops               0                       # Total number of snoops made to the snoop filter.
system.membus.snoop_filter.hit_single_snoops            0                       # Number of snoops hitting in the snoop filter with a single holder of the requested data.
system.membus.snoop_filter.hit_multi_snoops            0                       # Number of snoops hitting in the snoop filter with multiple (>1) holders of the requested data.
system.membus.pwrStateResidencyTicks::UNDEFINED    486969543                       # Cumulative time (in ticks) in various power states
system.membus.trans_dist::ReadResp              16736                       # Transaction distribution
system.membus.trans_dist::ReadExReq              2144                       # Transaction distribution
system.membus.trans_dist::ReadExResp             2144                       # Transaction distribution
system.membus.trans_dist::ReadSharedReq         16736                       # Transaction distribution
system.membus.pkt_count_system.l3.mem_side::system.mem_ctrls.port        37760                       # Packet count per connected master and slave (bytes)
system.membus.pkt_count_system.l3.mem_side::total        37760                       # Packet count per connected master and slave (bytes)
system.membus.pkt_count::total                  37760                       # Packet count per connected master and slave (bytes)
system.membus.pkt_size_system.l3.mem_side::system.mem_ctrls.port      1208320                       # Cumulative packet size per connected master and slave (bytes)
system.membus.pkt_size_system.l3.mem_side::total      1208320                       # Cumulative packet size per connected master and slave (bytes)
system.membus.pkt_size::total                 1208320                       # Cumulative packet size per connected master and slave (bytes)
system.membus.snoops                                0                       # Total snoops (count)
system.membus.snoopTraffic                          0                       # Total snoop traffic (bytes)
system.membus.snoop_fanout::samples             18880                       # Request fanout histogram
system.membus.snoop_fanout::mean                    0                       # Request fanout histogram
system.membus.snoop_fanout::stdev                   0                       # Request fanout histogram
system.membus.snoop_fanout::underflows              0      0.00%      0.00% # Request fanout histogram
system.membus.snoop_fanout::0                   18880    100.00%    100.00% # Request fanout histogram
system.membus.snoop_fanout::1                       0      0.00%    100.00% # Request fanout histogram
system.membus.snoop_fanout::overflows               0      0.00%    100.00% # Request fanout histogram
system.membus.snoop_fanout::min_value               0                       # Request fanout histogram
system.membus.snoop_fanout::max_value               0                       # Request fanout histogram
system.membus.snoop_fanout::total               18880                       # Request fanout histogram
system.membus.reqLayer8.occupancy            24410589                       # Layer occupancy (ticks)
system.membus.reqLayer8.utilization               5.0                       # Layer utilization (%)
system.membus.respLayer1.occupancy           99632613                       # Layer occupancy (ticks)
system.membus.respLayer1.utilization             20.5                       # Layer utilization (%)
system.tol3bus.snoop_filter.tot_requests        22861                       # Total number of requests made to the snoop filter.
system.tol3bus.snoop_filter.hit_single_requests         3800                       # Number of requests hitting in the snoop filter with a single holder of the requested data.
system.tol3bus.snoop_filter.hit_multi_requests            0                       # Number of requests hitting in the snoop filter with multiple (>1) holders of the requested data.
system.tol3bus.snoop_filter.tot_snoops              0                       # Total number of snoops made to the snoop filter.
system.tol3bus.snoop_filter.hit_single_snoops            0                       # Number of snoops hitting in the snoop filter with a single holder of the requested data.
system.tol3bus.snoop_filter.hit_multi_snoops            0                       # Number of snoops hitting in the snoop filter with multiple (>1) holders of the requested data.
system.tol3bus.pwrStateResidencyTicks::UNDEFINED    486969543                       # Cumulative time (in ticks) in various power states
system.tol3bus.trans_dist::ReadResp             16867                       # Transaction distribution
system.tol3bus.trans_dist::WritebackDirty         1031                       # Transaction distribution
system.tol3bus.trans_dist::CleanEvict            2767                       # Transaction distribution
system.tol3bus.trans_dist::ReadExReq             2196                       # Transaction distribution
system.tol3bus.trans_dist::ReadExResp            2196                       # Transaction distribution
system.tol3bus.trans_dist::ReadSharedReq        16867                       # Transaction distribution
system.tol3bus.pkt_count_system.cpu0.l2cache.mem_side::system.l3.cpu_side        10535                       # Packet count per connected master and slave (bytes)
system.tol3bus.pkt_count_system.cpu1.l2cache.mem_side::system.l3.cpu_side        10509                       # Packet count per connected master and slave (bytes)
system.tol3bus.pkt_count_system.cpu2.l2cache.mem_side::system.l3.cpu_side        10422                       # Packet count per connected master and slave (bytes)
system.tol3bus.pkt_count_system.cpu3.l2cache.mem_side::system.l3.cpu_side        10458                       # Packet count per connected master and slave (bytes)
system.tol3bus.pkt_count::total                 41924                       # Packet count per connected master and slave (bytes)
system.tol3bus.pkt_size_system.cpu0.l2cache.mem_side::system.l3.cpu_side       318528                       # Cumulative packet size per connected master and slave (bytes)
system.tol3bus.pkt_size_system.cpu1.l2cache.mem_side::system.l3.cpu_side       324288                       # Cumulative packet size per connected master and slave (bytes)
system.tol3bus.pkt_size_system.cpu2.l2cache.mem_side::system.l3.cpu_side       322240                       # Cumulative packet size per connected master and slave (bytes)
system.tol3bus.pkt_size_system.cpu3.l2cache.mem_side::system.l3.cpu_side       320960                       # Cumulative packet size per connected master and slave (bytes)
system.tol3bus.pkt_size::total                1286016                       # Cumulative packet size per connected master and slave (bytes)
system.tol3bus.snoops                               0                       # Total snoops (count)
system.tol3bus.snoopTraffic                         0                       # Total snoop traffic (bytes)
system.tol3bus.snoop_fanout::samples            19063                       # Request fanout histogram
system.tol3bus.snoop_fanout::mean                   0                       # Request fanout histogram
system.tol3bus.snoop_fanout::stdev                  0                       # Request fanout histogram
system.tol3bus.snoop_fanout::underflows             0      0.00%      0.00% # Request fanout histogram
system.tol3bus.snoop_fanout::0                  19063    100.00%    100.00% # Request fanout histogram
system.tol3bus.snoop_fanout::1                      0      0.00%    100.00% # Request fanout histogram
system.tol3bus.snoop_fanout::2                      0      0.00%    100.00% # Request fanout histogram
system.tol3bus.snoop_fanout::3                      0      0.00%    100.00% # Request fanout histogram
system.tol3bus.snoop_fanout::4                      0      0.00%    100.00% # Request fanout histogram
system.tol3bus.snoop_fanout::overflows              0      0.00%    100.00% # Request fanout histogram
system.tol3bus.snoop_fanout::min_value              0                       # Request fanout histogram
system.tol3bus.snoop_fanout::max_value              0                       # Request fanout histogram
system.tol3bus.snoop_fanout::total              19063                       # Request fanout histogram
system.tol3bus.reqLayer0.occupancy           34081072                       # Layer occupancy (ticks)
system.tol3bus.reqLayer0.utilization              7.0                       # Layer utilization (%)
system.tol3bus.respLayer0.occupancy          15109000                       # Layer occupancy (ticks)
system.tol3bus.respLayer0.utilization             3.1                       # Layer utilization (%)
system.tol3bus.respLayer1.occupancy          15118355                       # Layer occupancy (ticks)
system.tol3bus.respLayer1.utilization             3.1                       # Layer utilization (%)
system.tol3bus.respLayer2.occupancy          15107272                       # Layer occupancy (ticks)
system.tol3bus.respLayer2.utilization             3.1                       # Layer utilization (%)
system.tol3bus.respLayer3.occupancy          15188829                       # Layer occupancy (ticks)
system.tol3bus.respLayer3.utilization             3.1                       # Layer utilization (%)

---------- End Simulation Statistics   ----------
