
---------- Begin Simulation Statistics ----------
sim_seconds                                  0.030655                       # Number of seconds simulated
sim_ticks                                 30654955026                       # Number of ticks simulated
final_tick                                30654955026                       # Number of ticks from beginning of simulation (restored from checkpoints and never reset)
sim_freq                                 1000000000000                       # Frequency of simulated ticks
host_inst_rate                                 239133                       # Simulator instruction rate (inst/s)
host_op_rate                                   357700                       # Simulator op (including micro ops) rate (op/s)
host_tick_rate                                8367604                       # Simulator tick rate (ticks/s)
host_mem_usage                               33900628                       # Number of bytes of host memory used
host_seconds                                  3663.53                       # Real time elapsed on the host
sim_insts                                   876071765                       # Number of instructions simulated
sim_ops                                    1310443767                       # Number of ops (including micro ops) simulated
system.voltage_domain.voltage                       1                       # Voltage in Volts
system.clk_domain.clock                          1000                       # Clock period in ticks
system.mem_ctrls.pwrStateResidencyTicks::UNDEFINED  30654955026                       # Cumulative time (in ticks) in various power states
system.mem_ctrls.bytes_read::cpu0.inst          85696                       # Number of bytes read from this memory
system.mem_ctrls.bytes_read::cpu0.data         849984                       # Number of bytes read from this memory
system.mem_ctrls.bytes_read::cpu1.inst          85632                       # Number of bytes read from this memory
system.mem_ctrls.bytes_read::cpu1.data         850496                       # Number of bytes read from this memory
system.mem_ctrls.bytes_read::cpu2.inst          86464                       # Number of bytes read from this memory
system.mem_ctrls.bytes_read::cpu2.data         849216                       # Number of bytes read from this memory
system.mem_ctrls.bytes_read::cpu3.inst          86272                       # Number of bytes read from this memory
system.mem_ctrls.bytes_read::cpu3.data         849600                       # Number of bytes read from this memory
system.mem_ctrls.bytes_read::total            3743360                       # Number of bytes read from this memory
system.mem_ctrls.bytes_inst_read::cpu0.inst        85696                       # Number of instructions bytes read from this memory
system.mem_ctrls.bytes_inst_read::cpu1.inst        85632                       # Number of instructions bytes read from this memory
system.mem_ctrls.bytes_inst_read::cpu2.inst        86464                       # Number of instructions bytes read from this memory
system.mem_ctrls.bytes_inst_read::cpu3.inst        86272                       # Number of instructions bytes read from this memory
system.mem_ctrls.bytes_inst_read::total        344064                       # Number of instructions bytes read from this memory
system.mem_ctrls.num_reads::cpu0.inst            1339                       # Number of read requests responded to by this memory
system.mem_ctrls.num_reads::cpu0.data           13281                       # Number of read requests responded to by this memory
system.mem_ctrls.num_reads::cpu1.inst            1338                       # Number of read requests responded to by this memory
system.mem_ctrls.num_reads::cpu1.data           13289                       # Number of read requests responded to by this memory
system.mem_ctrls.num_reads::cpu2.inst            1351                       # Number of read requests responded to by this memory
system.mem_ctrls.num_reads::cpu2.data           13269                       # Number of read requests responded to by this memory
system.mem_ctrls.num_reads::cpu3.inst            1348                       # Number of read requests responded to by this memory
system.mem_ctrls.num_reads::cpu3.data           13275                       # Number of read requests responded to by this memory
system.mem_ctrls.num_reads::total               58490                       # Number of read requests responded to by this memory
system.mem_ctrls.bw_read::cpu0.inst           2795502                       # Total read bandwidth from this memory (bytes/s)
system.mem_ctrls.bw_read::cpu0.data          27727459                       # Total read bandwidth from this memory (bytes/s)
system.mem_ctrls.bw_read::cpu1.inst           2793415                       # Total read bandwidth from this memory (bytes/s)
system.mem_ctrls.bw_read::cpu1.data          27744161                       # Total read bandwidth from this memory (bytes/s)
system.mem_ctrls.bw_read::cpu2.inst           2820555                       # Total read bandwidth from this memory (bytes/s)
system.mem_ctrls.bw_read::cpu2.data          27702406                       # Total read bandwidth from this memory (bytes/s)
system.mem_ctrls.bw_read::cpu3.inst           2814292                       # Total read bandwidth from this memory (bytes/s)
system.mem_ctrls.bw_read::cpu3.data          27714932                       # Total read bandwidth from this memory (bytes/s)
system.mem_ctrls.bw_read::total             122112722                       # Total read bandwidth from this memory (bytes/s)
system.mem_ctrls.bw_inst_read::cpu0.inst      2795502                       # Instruction read bandwidth from this memory (bytes/s)
system.mem_ctrls.bw_inst_read::cpu1.inst      2793415                       # Instruction read bandwidth from this memory (bytes/s)
system.mem_ctrls.bw_inst_read::cpu2.inst      2820555                       # Instruction read bandwidth from this memory (bytes/s)
system.mem_ctrls.bw_inst_read::cpu3.inst      2814292                       # Instruction read bandwidth from this memory (bytes/s)
system.mem_ctrls.bw_inst_read::total         11223765                       # Instruction read bandwidth from this memory (bytes/s)
system.mem_ctrls.bw_total::cpu0.inst          2795502                       # Total bandwidth to/from this memory (bytes/s)
system.mem_ctrls.bw_total::cpu0.data         27727459                       # Total bandwidth to/from this memory (bytes/s)
system.mem_ctrls.bw_total::cpu1.inst          2793415                       # Total bandwidth to/from this memory (bytes/s)
system.mem_ctrls.bw_total::cpu1.data         27744161                       # Total bandwidth to/from this memory (bytes/s)
system.mem_ctrls.bw_total::cpu2.inst          2820555                       # Total bandwidth to/from this memory (bytes/s)
system.mem_ctrls.bw_total::cpu2.data         27702406                       # Total bandwidth to/from this memory (bytes/s)
system.mem_ctrls.bw_total::cpu3.inst          2814292                       # Total bandwidth to/from this memory (bytes/s)
system.mem_ctrls.bw_total::cpu3.data         27714932                       # Total bandwidth to/from this memory (bytes/s)
system.mem_ctrls.bw_total::total            122112722                       # Total bandwidth to/from this memory (bytes/s)
system.pwrStateResidencyTicks::UNDEFINED  30654955026                       # Cumulative time (in ticks) in various power states
system.cpu0.branchPred.lookups               15153667                       # Number of BP lookups
system.cpu0.branchPred.condPredicted         15153667                       # Number of conditional branches predicted
system.cpu0.branchPred.condIncorrect           550854                       # Number of conditional branches incorrect
system.cpu0.branchPred.BTBLookups            13241689                       # Number of BTB lookups
system.cpu0.branchPred.BTBHits                      0                       # Number of BTB hits
system.cpu0.branchPred.BTBCorrect                   0                       # Number of correct BTB predictions (this stat may not work properly.
system.cpu0.branchPred.BTBHitPct             0.000000                       # BTB Hit Percentage
system.cpu0.branchPred.usedRAS                 479992                       # Number of times the RAS was used to get a target.
system.cpu0.branchPred.RASInCorrect             41337                       # Number of incorrect RAS predictions.
system.cpu0.branchPred.indirectLookups       13241689                       # Number of indirect predictor lookups.
system.cpu0.branchPred.indirectHits           9594261                       # Number of indirect target hits.
system.cpu0.branchPred.indirectMisses         3647428                       # Number of indirect misses.
system.cpu0.branchPredindirectMispredicted       200458                       # Number of mispredicted indirect branches.
system.cpu_voltage_domain.voltage                   1                       # Voltage in Volts
system.cpu_clk_domain.clock                       333                       # Clock period in ticks
system.cpu0.dtb.walker.pwrStateResidencyTicks::UNDEFINED  30654955026                       # Cumulative time (in ticks) in various power states
system.cpu0.dtb.rdAccesses                  104134194                       # TLB accesses on read requests
system.cpu0.dtb.wrAccesses                   13893928                       # TLB accesses on write requests
system.cpu0.dtb.rdMisses                        27257                       # TLB misses on read requests
system.cpu0.dtb.wrMisses                          124                       # TLB misses on write requests
system.cpu0.apic_clk_domain.clock                5328                       # Clock period in ticks
system.cpu0.interrupts.pwrStateResidencyTicks::UNDEFINED  30654955026                       # Cumulative time (in ticks) in various power states
system.cpu0.itb.walker.pwrStateResidencyTicks::UNDEFINED  30654955026                       # Cumulative time (in ticks) in various power states
system.cpu0.itb.rdAccesses                          0                       # TLB accesses on read requests
system.cpu0.itb.wrAccesses                   25382138                       # TLB accesses on write requests
system.cpu0.itb.rdMisses                            0                       # TLB misses on read requests
system.cpu0.itb.wrMisses                          191                       # TLB misses on write requests
system.cpu0.workload.numSyscalls                12179                       # Number of system calls
system.cpu0.pwrStateResidencyTicks::ON    30654955026                       # Cumulative time (in ticks) in various power states
system.cpu0.numCycles                        92056923                       # number of cpu cycles simulated
system.cpu0.numWorkItemsStarted                     0                       # number of work items this cpu started
system.cpu0.numWorkItemsCompleted                   0                       # number of work items this cpu completed
system.cpu0.fetch.icacheStallCycles          25770615                       # Number of cycles fetch is stalled on an Icache miss
system.cpu0.fetch.Insts                     236967305                       # Number of instructions fetch has processed
system.cpu0.fetch.Branches                   15153667                       # Number of branches that fetch encountered
system.cpu0.fetch.predictedBranches          10074253                       # Number of branches that fetch has predicted taken
system.cpu0.fetch.Cycles                     65616507                       # Number of cycles fetch has run and was not squashing or blocked
system.cpu0.fetch.SquashCycles                1107502                       # Number of cycles fetch has spent squashing
system.cpu0.fetch.MiscStallCycles                   9                       # Number of cycles fetch has spent waiting on interrupts, or bad addresses, or out of MSHRs
system.cpu0.fetch.PendingQuiesceStallCycles            9                       # Number of stall cycles due to pending quiesce instructions
system.cpu0.fetch.IcacheWaitRetryStallCycles          114                       # Number of stall cycles due to full MSHR
system.cpu0.fetch.CacheLines                 25382138                       # Number of cache lines fetched
system.cpu0.fetch.IcacheSquashes               133988                       # Number of outstanding Icache misses that were squashed
system.cpu0.fetch.rateDist::samples          91941005                       # Number of instructions fetched each cycle (Total)
system.cpu0.fetch.rateDist::mean             3.912384                       # Number of instructions fetched each cycle (Total)
system.cpu0.fetch.rateDist::stdev            3.632797                       # Number of instructions fetched each cycle (Total)
system.cpu0.fetch.rateDist::underflows              0      0.00%      0.00% # Number of instructions fetched each cycle (Total)
system.cpu0.fetch.rateDist::0                38970627     42.39%     42.39% # Number of instructions fetched each cycle (Total)
system.cpu0.fetch.rateDist::1                 1506167      1.64%     44.02% # Number of instructions fetched each cycle (Total)
system.cpu0.fetch.rateDist::2                 1642817      1.79%     45.81% # Number of instructions fetched each cycle (Total)
system.cpu0.fetch.rateDist::3                 1115127      1.21%     47.02% # Number of instructions fetched each cycle (Total)
system.cpu0.fetch.rateDist::4                 2078038      2.26%     49.28% # Number of instructions fetched each cycle (Total)
system.cpu0.fetch.rateDist::5                 2551498      2.78%     52.06% # Number of instructions fetched each cycle (Total)
system.cpu0.fetch.rateDist::6                 8152252      8.87%     60.93% # Number of instructions fetched each cycle (Total)
system.cpu0.fetch.rateDist::7                 5807616      6.32%     67.24% # Number of instructions fetched each cycle (Total)
system.cpu0.fetch.rateDist::8                30116863     32.76%    100.00% # Number of instructions fetched each cycle (Total)
system.cpu0.fetch.rateDist::overflows               0      0.00%    100.00% # Number of instructions fetched each cycle (Total)
system.cpu0.fetch.rateDist::min_value               0                       # Number of instructions fetched each cycle (Total)
system.cpu0.fetch.rateDist::max_value               8                       # Number of instructions fetched each cycle (Total)
system.cpu0.fetch.rateDist::total            91941005                       # Number of instructions fetched each cycle (Total)
system.cpu0.fetch.branchRate                 0.164612                       # Number of branch fetches per cycle
system.cpu0.fetch.rate                       2.574139                       # Number of inst fetches per cycle
system.cpu0.decode.IdleCycles                12025350                       # Number of cycles decode is idle
system.cpu0.decode.BlockedCycles             32440570                       # Number of cycles decode is blocked
system.cpu0.decode.RunCycles                 38168520                       # Number of cycles decode is running
system.cpu0.decode.UnblockCycles              8752814                       # Number of cycles decode is unblocking
system.cpu0.decode.SquashCycles                553751                       # Number of cycles decode is squashing
system.cpu0.decode.DecodedInsts             353067664                       # Number of instructions handled by decode
system.cpu0.rename.SquashCycles                553751                       # Number of cycles rename is squashing
system.cpu0.rename.IdleCycles                16754484                       # Number of cycles rename is idle
system.cpu0.rename.BlockCycles                2670905                       # Number of cycles rename is blocking
system.cpu0.rename.serializeStallCycles        278113                       # count of cycles rename stalled for serializing inst
system.cpu0.rename.RunCycles                 42120774                       # Number of cycles rename is running
system.cpu0.rename.UnblockCycles             29562978                       # Number of cycles rename is unblocking
system.cpu0.rename.RenamedInsts             350189250                       # Number of instructions processed by rename
system.cpu0.rename.ROBFullEvents                 4685                       # Number of times rename has blocked due to ROB full
system.cpu0.rename.IQFullEvents                737899                       # Number of times rename has blocked due to IQ full
system.cpu0.rename.LQFullEvents              25647801                       # Number of times rename has blocked due to LQ full
system.cpu0.rename.SQFullEvents                 43960                       # Number of times rename has blocked due to SQ full
system.cpu0.rename.FullRegisterEvents               3                       # Number of times there has been no free registers
system.cpu0.rename.RenamedOperands          484668984                       # Number of destination operands rename has renamed
system.cpu0.rename.RenameLookups            821989800                       # Number of register rename lookups that rename has made
system.cpu0.rename.int_rename_lookups       556142285                       # Number of integer rename lookups
system.cpu0.rename.fp_rename_lookups         36177820                       # Number of floating rename lookups
system.cpu0.rename.CommittedMaps            453805857                       # Number of HB maps that are committed
system.cpu0.rename.UndoneMaps                30863001                       # Number of HB maps that are undone due to squashing
system.cpu0.rename.serializingInsts             28278                       # count of serializing insts renamed
system.cpu0.rename.tempSerializingInsts         28261                       # count of temporary serializing insts renamed
system.cpu0.rename.skidInsts                 53532855                       # count of insts added to the skid buffer
system.cpu0.memDep0.insertedLoads           105693357                       # Number of loads inserted to the mem dependence unit.
system.cpu0.memDep0.insertedStores           14505997                       # Number of stores inserted to the mem dependence unit.
system.cpu0.memDep0.conflictingLoads         14037367                       # Number of conflicting loads.
system.cpu0.memDep0.conflictingStores         4472410                       # Number of conflicting stores.
system.cpu0.iq.iqInstsAdded                 345013723                       # Number of instructions added to the IQ (excludes non-spec)
system.cpu0.iq.iqNonSpecInstsAdded              28538                       # Number of non-speculative instructions added to the IQ
system.cpu0.iq.iqInstsIssued                337955232                       # Number of instructions issued
system.cpu0.iq.iqSquashedInstsIssued           551523                       # Number of squashed instructions issued
system.cpu0.iq.iqSquashedInstsExamined       19778124                       # Number of squashed instructions iterated over during squash; mainly for profiling
system.cpu0.iq.iqSquashedOperandsExamined     27297749                       # Number of squashed operands that are examined and possibly removed from graph
system.cpu0.iq.iqSquashedNonSpecRemoved         16269                       # Number of squashed non-spec instructions that were removed
system.cpu0.iq.issued_per_cycle::samples     91941005                       # Number of insts issued each cycle
system.cpu0.iq.issued_per_cycle::mean        3.675784                       # Number of insts issued each cycle
system.cpu0.iq.issued_per_cycle::stdev       2.061371                       # Number of insts issued each cycle
system.cpu0.iq.issued_per_cycle::underflows            0      0.00%      0.00% # Number of insts issued each cycle
system.cpu0.iq.issued_per_cycle::0            8375727      9.11%      9.11% # Number of insts issued each cycle
system.cpu0.iq.issued_per_cycle::1            7409777      8.06%     17.17% # Number of insts issued each cycle
system.cpu0.iq.issued_per_cycle::2           11591472     12.61%     29.78% # Number of insts issued each cycle
system.cpu0.iq.issued_per_cycle::3           12405185     13.49%     43.27% # Number of insts issued each cycle
system.cpu0.iq.issued_per_cycle::4           18446724     20.06%     63.33% # Number of insts issued each cycle
system.cpu0.iq.issued_per_cycle::5           15822921     17.21%     80.54% # Number of insts issued each cycle
system.cpu0.iq.issued_per_cycle::6            9950468     10.82%     91.37% # Number of insts issued each cycle
system.cpu0.iq.issued_per_cycle::7            5967201      6.49%     97.86% # Number of insts issued each cycle
system.cpu0.iq.issued_per_cycle::8            1971530      2.14%    100.00% # Number of insts issued each cycle
system.cpu0.iq.issued_per_cycle::overflows            0      0.00%    100.00% # Number of insts issued each cycle
system.cpu0.iq.issued_per_cycle::min_value            0                       # Number of insts issued each cycle
system.cpu0.iq.issued_per_cycle::max_value            8                       # Number of insts issued each cycle
system.cpu0.iq.issued_per_cycle::total       91941005                       # Number of insts issued each cycle
system.cpu0.iq.fu_full::No_OpClass                  0      0.00%      0.00% # attempts to use FU when none available
system.cpu0.iq.fu_full::IntAlu                1310380     47.81%     47.81% # attempts to use FU when none available
system.cpu0.iq.fu_full::IntMult                     0      0.00%     47.81% # attempts to use FU when none available
system.cpu0.iq.fu_full::IntDiv                      0      0.00%     47.81% # attempts to use FU when none available
system.cpu0.iq.fu_full::FloatAdd               390599     14.25%     62.07% # attempts to use FU when none available
system.cpu0.iq.fu_full::FloatCmp                    0      0.00%     62.07% # attempts to use FU when none available
system.cpu0.iq.fu_full::FloatCvt                    0      0.00%     62.07% # attempts to use FU when none available
system.cpu0.iq.fu_full::FloatMult                   0      0.00%     62.07% # attempts to use FU when none available
system.cpu0.iq.fu_full::FloatMultAcc                0      0.00%     62.07% # attempts to use FU when none available
system.cpu0.iq.fu_full::FloatDiv                    0      0.00%     62.07% # attempts to use FU when none available
system.cpu0.iq.fu_full::FloatMisc                   0      0.00%     62.07% # attempts to use FU when none available
system.cpu0.iq.fu_full::FloatSqrt                   0      0.00%     62.07% # attempts to use FU when none available
system.cpu0.iq.fu_full::SimdAdd                     0      0.00%     62.07% # attempts to use FU when none available
system.cpu0.iq.fu_full::SimdAddAcc                  0      0.00%     62.07% # attempts to use FU when none available
system.cpu0.iq.fu_full::SimdAlu                     0      0.00%     62.07% # attempts to use FU when none available
system.cpu0.iq.fu_full::SimdCmp                     0      0.00%     62.07% # attempts to use FU when none available
system.cpu0.iq.fu_full::SimdCvt                     0      0.00%     62.07% # attempts to use FU when none available
system.cpu0.iq.fu_full::SimdMisc                    0      0.00%     62.07% # attempts to use FU when none available
system.cpu0.iq.fu_full::SimdMult                    0      0.00%     62.07% # attempts to use FU when none available
system.cpu0.iq.fu_full::SimdMultAcc                 0      0.00%     62.07% # attempts to use FU when none available
system.cpu0.iq.fu_full::SimdShift                   0      0.00%     62.07% # attempts to use FU when none available
system.cpu0.iq.fu_full::SimdShiftAcc                0      0.00%     62.07% # attempts to use FU when none available
system.cpu0.iq.fu_full::SimdSqrt                    0      0.00%     62.07% # attempts to use FU when none available
system.cpu0.iq.fu_full::SimdFloatAdd                0      0.00%     62.07% # attempts to use FU when none available
system.cpu0.iq.fu_full::SimdFloatAlu                0      0.00%     62.07% # attempts to use FU when none available
system.cpu0.iq.fu_full::SimdFloatCmp                0      0.00%     62.07% # attempts to use FU when none available
system.cpu0.iq.fu_full::SimdFloatCvt                0      0.00%     62.07% # attempts to use FU when none available
system.cpu0.iq.fu_full::SimdFloatDiv                0      0.00%     62.07% # attempts to use FU when none available
system.cpu0.iq.fu_full::SimdFloatMisc               0      0.00%     62.07% # attempts to use FU when none available
system.cpu0.iq.fu_full::SimdFloatMult               0      0.00%     62.07% # attempts to use FU when none available
system.cpu0.iq.fu_full::SimdFloatMultAcc            0      0.00%     62.07% # attempts to use FU when none available
system.cpu0.iq.fu_full::SimdFloatSqrt               0      0.00%     62.07% # attempts to use FU when none available
system.cpu0.iq.fu_full::MemRead                980036     35.76%     97.83% # attempts to use FU when none available
system.cpu0.iq.fu_full::MemWrite                47210      1.72%     99.55% # attempts to use FU when none available
system.cpu0.iq.fu_full::FloatMemRead            12150      0.44%     99.99% # attempts to use FU when none available
system.cpu0.iq.fu_full::FloatMemWrite             201      0.01%    100.00% # attempts to use FU when none available
system.cpu0.iq.fu_full::IprAccess                   0      0.00%    100.00% # attempts to use FU when none available
system.cpu0.iq.fu_full::InstPrefetch                0      0.00%    100.00% # attempts to use FU when none available
system.cpu0.iq.FU_type_0::No_OpClass           345830      0.10%      0.10% # Type of FU issued
system.cpu0.iq.FU_type_0::IntAlu            172435827     51.02%     51.13% # Type of FU issued
system.cpu0.iq.FU_type_0::IntMult             9235749      2.73%     53.86% # Type of FU issued
system.cpu0.iq.FU_type_0::IntDiv                86916      0.03%     53.88% # Type of FU issued
system.cpu0.iq.FU_type_0::FloatAdd           37215069     11.01%     64.90% # Type of FU issued
system.cpu0.iq.FU_type_0::FloatCmp                  0      0.00%     64.90% # Type of FU issued
system.cpu0.iq.FU_type_0::FloatCvt                 32      0.00%     64.90% # Type of FU issued
system.cpu0.iq.FU_type_0::FloatMult                 0      0.00%     64.90% # Type of FU issued
system.cpu0.iq.FU_type_0::FloatMultAcc              0      0.00%     64.90% # Type of FU issued
system.cpu0.iq.FU_type_0::FloatDiv                  0      0.00%     64.90% # Type of FU issued
system.cpu0.iq.FU_type_0::FloatMisc                 0      0.00%     64.90% # Type of FU issued
system.cpu0.iq.FU_type_0::FloatSqrt                 0      0.00%     64.90% # Type of FU issued
system.cpu0.iq.FU_type_0::SimdAdd                   0      0.00%     64.90% # Type of FU issued
system.cpu0.iq.FU_type_0::SimdAddAcc                0      0.00%     64.90% # Type of FU issued
system.cpu0.iq.FU_type_0::SimdAlu                   0      0.00%     64.90% # Type of FU issued
system.cpu0.iq.FU_type_0::SimdCmp                   0      0.00%     64.90% # Type of FU issued
system.cpu0.iq.FU_type_0::SimdCvt                   0      0.00%     64.90% # Type of FU issued
system.cpu0.iq.FU_type_0::SimdMisc                  0      0.00%     64.90% # Type of FU issued
system.cpu0.iq.FU_type_0::SimdMult                  0      0.00%     64.90% # Type of FU issued
system.cpu0.iq.FU_type_0::SimdMultAcc               0      0.00%     64.90% # Type of FU issued
system.cpu0.iq.FU_type_0::SimdShift                 0      0.00%     64.90% # Type of FU issued
system.cpu0.iq.FU_type_0::SimdShiftAcc              0      0.00%     64.90% # Type of FU issued
system.cpu0.iq.FU_type_0::SimdSqrt                  0      0.00%     64.90% # Type of FU issued
system.cpu0.iq.FU_type_0::SimdFloatAdd              0      0.00%     64.90% # Type of FU issued
system.cpu0.iq.FU_type_0::SimdFloatAlu              0      0.00%     64.90% # Type of FU issued
system.cpu0.iq.FU_type_0::SimdFloatCmp              0      0.00%     64.90% # Type of FU issued
system.cpu0.iq.FU_type_0::SimdFloatCvt              0      0.00%     64.90% # Type of FU issued
system.cpu0.iq.FU_type_0::SimdFloatDiv              0      0.00%     64.90% # Type of FU issued
system.cpu0.iq.FU_type_0::SimdFloatMisc             0      0.00%     64.90% # Type of FU issued
system.cpu0.iq.FU_type_0::SimdFloatMult             0      0.00%     64.90% # Type of FU issued
system.cpu0.iq.FU_type_0::SimdFloatMultAcc            0      0.00%     64.90% # Type of FU issued
system.cpu0.iq.FU_type_0::SimdFloatSqrt             0      0.00%     64.90% # Type of FU issued
system.cpu0.iq.FU_type_0::MemRead            91035019     26.94%     91.83% # Type of FU issued
system.cpu0.iq.FU_type_0::MemWrite            9466206      2.80%     94.63% # Type of FU issued
system.cpu0.iq.FU_type_0::FloatMemRead       13617922      4.03%     98.66% # Type of FU issued
system.cpu0.iq.FU_type_0::FloatMemWrite       4516662      1.34%    100.00% # Type of FU issued
system.cpu0.iq.FU_type_0::IprAccess                 0      0.00%    100.00% # Type of FU issued
system.cpu0.iq.FU_type_0::InstPrefetch              0      0.00%    100.00% # Type of FU issued
system.cpu0.iq.FU_type_0::total             337955232                       # Type of FU issued
system.cpu0.iq.rate                          3.671155                       # Inst issue rate
system.cpu0.iq.fu_busy_cnt                    2740576                       # FU busy when requested
system.cpu0.iq.fu_busy_rate                  0.008109                       # FU busy rate (busy events/executed inst)
system.cpu0.iq.int_inst_queue_reads         659416199                       # Number of integer instruction queue reads
system.cpu0.iq.int_inst_queue_writes        307009842                       # Number of integer instruction queue writes
system.cpu0.iq.int_inst_queue_wakeup_accesses    280448123                       # Number of integer instruction queue wakeup accesses
system.cpu0.iq.fp_inst_queue_reads          111727369                       # Number of floating instruction queue reads
system.cpu0.iq.fp_inst_queue_writes          57813903                       # Number of floating instruction queue writes
system.cpu0.iq.fp_inst_queue_wakeup_accesses     55278809                       # Number of floating instruction queue wakeup accesses
system.cpu0.iq.vec_inst_queue_reads                 0                       # Number of vector instruction queue reads
system.cpu0.iq.vec_inst_queue_writes                0                       # Number of vector instruction queue writes
system.cpu0.iq.vec_inst_queue_wakeup_accesses            0                       # Number of vector instruction queue wakeup accesses
system.cpu0.iq.int_alu_accesses             284365901                       # Number of integer alu accesses
system.cpu0.iq.fp_alu_accesses               55984077                       # Number of floating point alu accesses
system.cpu0.iq.vec_alu_accesses                     0                       # Number of vector alu accesses
system.cpu0.iew.lsq.thread0.forwLoads        24573627                       # Number of loads that had data forwarded from stores
system.cpu0.iew.lsq.thread0.invAddrLoads            0                       # Number of loads ignored due to an invalid address
system.cpu0.iew.lsq.thread0.squashedLoads      4271742                       # Number of loads squashed
system.cpu0.iew.lsq.thread0.ignoredResponses        25872                       # Number of memory responses ignored because the instruction is squashed
system.cpu0.iew.lsq.thread0.memOrderViolation         3405                       # Number of memory ordering violations
system.cpu0.iew.lsq.thread0.squashedStores      1218186                       # Number of stores squashed
system.cpu0.iew.lsq.thread0.invAddrSwpfs            0                       # Number of software prefetches ignored due to an invalid address
system.cpu0.iew.lsq.thread0.blockedLoads            0                       # Number of blocked loads due to partial load-store forwarding
system.cpu0.iew.lsq.thread0.rescheduledLoads        26206                       # Number of loads that were rescheduled
system.cpu0.iew.lsq.thread0.cacheBlocked          907                       # Number of times an access to memory failed due to the cache being blocked
system.cpu0.iew.iewIdleCycles                       0                       # Number of cycles IEW is idle
system.cpu0.iew.iewSquashCycles                553751                       # Number of cycles IEW is squashing
system.cpu0.iew.iewBlockCycles                2234447                       # Number of cycles IEW is blocking
system.cpu0.iew.iewUnblockCycles               177458                       # Number of cycles IEW is unblocking
system.cpu0.iew.iewDispatchedInsts          345042261                       # Number of instructions dispatched to IQ
system.cpu0.iew.iewDispSquashedInsts            50340                       # Number of squashed instructions skipped by dispatch
system.cpu0.iew.iewDispLoadInsts            105693357                       # Number of dispatched load instructions
system.cpu0.iew.iewDispStoreInsts            14505997                       # Number of dispatched store instructions
system.cpu0.iew.iewDispNonSpecInsts             28300                       # Number of dispatched non-speculative instructions
system.cpu0.iew.iewIQFullEvents                   800                       # Number of times the IQ has become full, causing a stall
system.cpu0.iew.iewLSQFullEvents               176278                       # Number of times the LSQ has become full, causing a stall
system.cpu0.iew.memOrderViolationEvents          3405                       # Number of memory order violations
system.cpu0.iew.predictedTakenIncorrect        260034                       # Number of branches that were predicted taken incorrectly
system.cpu0.iew.predictedNotTakenIncorrect       387006                       # Number of branches that were predicted not taken incorrectly
system.cpu0.iew.branchMispredicts              647040                       # Number of branch mispredicts detected at execute
system.cpu0.iew.iewExecutedInsts            336547482                       # Number of executed instructions
system.cpu0.iew.iewExecLoadInsts            104109089                       # Number of load instructions executed
system.cpu0.iew.iewExecSquashedInsts          1407750                       # Number of squashed instructions skipped in execute
system.cpu0.iew.exec_swp                            0                       # number of swp insts executed
system.cpu0.iew.exec_nop                            0                       # number of nop insts executed
system.cpu0.iew.exec_refs                   117992913                       # number of memory reference insts executed
system.cpu0.iew.exec_branches                13100320                       # Number of branches executed
system.cpu0.iew.exec_stores                  13883824                       # Number of stores executed
system.cpu0.iew.exec_rate                    3.655863                       # Inst execution rate
system.cpu0.iew.wb_sent                     336071566                       # cumulative count of insts sent to commit
system.cpu0.iew.wb_count                    335726932                       # cumulative count of insts written-back
system.cpu0.iew.wb_producers                266763567                       # num instructions producing a value
system.cpu0.iew.wb_consumers                351766826                       # num instructions consuming a value
system.cpu0.iew.wb_rate                      3.646949                       # insts written-back per cycle
system.cpu0.iew.wb_fanout                    0.758353                       # average fanout of values written-back
system.cpu0.commit.commitSquashedInsts       19778169                       # The number of squashed insts skipped by commit
system.cpu0.commit.commitNonSpecStalls          12269                       # The number of times commit has been forced to stall to communicate backwards
system.cpu0.commit.branchMispredicts           550854                       # The number of times a branch was mispredicted
system.cpu0.commit.committed_per_cycle::samples     89245515                       # Number of insts commited each cycle
system.cpu0.commit.committed_per_cycle::mean     3.644598                       # Number of insts commited each cycle
system.cpu0.commit.committed_per_cycle::stdev     3.407593                       # Number of insts commited each cycle
system.cpu0.commit.committed_per_cycle::underflows            0      0.00%      0.00% # Number of insts commited each cycle
system.cpu0.commit.committed_per_cycle::0     24970077     27.98%     27.98% # Number of insts commited each cycle
system.cpu0.commit.committed_per_cycle::1     14433302     16.17%     44.15% # Number of insts commited each cycle
system.cpu0.commit.committed_per_cycle::2      4814440      5.39%     49.55% # Number of insts commited each cycle
system.cpu0.commit.committed_per_cycle::3      5684267      6.37%     55.92% # Number of insts commited each cycle
system.cpu0.commit.committed_per_cycle::4      5344233      5.99%     61.90% # Number of insts commited each cycle
system.cpu0.commit.committed_per_cycle::5      2021775      2.27%     64.17% # Number of insts commited each cycle
system.cpu0.commit.committed_per_cycle::6       816590      0.91%     65.08% # Number of insts commited each cycle
system.cpu0.commit.committed_per_cycle::7      1522930      1.71%     66.79% # Number of insts commited each cycle
system.cpu0.commit.committed_per_cycle::8     29637901     33.21%    100.00% # Number of insts commited each cycle
system.cpu0.commit.committed_per_cycle::overflows            0      0.00%    100.00% # Number of insts commited each cycle
system.cpu0.commit.committed_per_cycle::min_value            0                       # Number of insts commited each cycle
system.cpu0.commit.committed_per_cycle::max_value            8                       # Number of insts commited each cycle
system.cpu0.commit.committed_per_cycle::total     89245515                       # Number of insts commited each cycle
system.cpu0.commit.committedInsts           217448826                       # Number of instructions committed
system.cpu0.commit.committedOps             325264048                       # Number of ops (including micro ops) committed
system.cpu0.commit.swp_count                        0                       # Number of s/w prefetches committed
system.cpu0.commit.refs                     114709390                       # Number of memory references committed
system.cpu0.commit.loads                    101421583                       # Number of loads committed
system.cpu0.commit.membars                         48                       # Number of memory barriers committed
system.cpu0.commit.branches                  12322085                       # Number of branches committed
system.cpu0.commit.vec_insts                        0                       # Number of committed Vector instructions.
system.cpu0.commit.fp_insts                  55039597                       # Number of committed floating point instructions.
system.cpu0.commit.int_insts                288338469                       # Number of committed integer instructions.
system.cpu0.commit.function_calls              389347                       # Number of function calls committed.
system.cpu0.commit.op_class_0::No_OpClass       184696      0.06%      0.06% # Class of committed instruction
system.cpu0.commit.op_class_0::IntAlu       164405757     50.55%     50.60% # Class of committed instruction
system.cpu0.commit.op_class_0::IntMult        9112193      2.80%     53.40% # Class of committed instruction
system.cpu0.commit.op_class_0::IntDiv           86541      0.03%     53.43% # Class of committed instruction
system.cpu0.commit.op_class_0::FloatAdd      36765439     11.30%     64.73% # Class of committed instruction
system.cpu0.commit.op_class_0::FloatCmp             0      0.00%     64.73% # Class of committed instruction
system.cpu0.commit.op_class_0::FloatCvt            32      0.00%     64.73% # Class of committed instruction
system.cpu0.commit.op_class_0::FloatMult            0      0.00%     64.73% # Class of committed instruction
system.cpu0.commit.op_class_0::FloatMultAcc            0      0.00%     64.73% # Class of committed instruction
system.cpu0.commit.op_class_0::FloatDiv             0      0.00%     64.73% # Class of committed instruction
system.cpu0.commit.op_class_0::FloatMisc            0      0.00%     64.73% # Class of committed instruction
system.cpu0.commit.op_class_0::FloatSqrt            0      0.00%     64.73% # Class of committed instruction
system.cpu0.commit.op_class_0::SimdAdd              0      0.00%     64.73% # Class of committed instruction
system.cpu0.commit.op_class_0::SimdAddAcc            0      0.00%     64.73% # Class of committed instruction
system.cpu0.commit.op_class_0::SimdAlu              0      0.00%     64.73% # Class of committed instruction
system.cpu0.commit.op_class_0::SimdCmp              0      0.00%     64.73% # Class of committed instruction
system.cpu0.commit.op_class_0::SimdCvt              0      0.00%     64.73% # Class of committed instruction
system.cpu0.commit.op_class_0::SimdMisc             0      0.00%     64.73% # Class of committed instruction
system.cpu0.commit.op_class_0::SimdMult             0      0.00%     64.73% # Class of committed instruction
system.cpu0.commit.op_class_0::SimdMultAcc            0      0.00%     64.73% # Class of committed instruction
system.cpu0.commit.op_class_0::SimdShift            0      0.00%     64.73% # Class of committed instruction
system.cpu0.commit.op_class_0::SimdShiftAcc            0      0.00%     64.73% # Class of committed instruction
system.cpu0.commit.op_class_0::SimdSqrt             0      0.00%     64.73% # Class of committed instruction
system.cpu0.commit.op_class_0::SimdFloatAdd            0      0.00%     64.73% # Class of committed instruction
system.cpu0.commit.op_class_0::SimdFloatAlu            0      0.00%     64.73% # Class of committed instruction
system.cpu0.commit.op_class_0::SimdFloatCmp            0      0.00%     64.73% # Class of committed instruction
system.cpu0.commit.op_class_0::SimdFloatCvt            0      0.00%     64.73% # Class of committed instruction
system.cpu0.commit.op_class_0::SimdFloatDiv            0      0.00%     64.73% # Class of committed instruction
system.cpu0.commit.op_class_0::SimdFloatMisc            0      0.00%     64.73% # Class of committed instruction
system.cpu0.commit.op_class_0::SimdFloatMult            0      0.00%     64.73% # Class of committed instruction
system.cpu0.commit.op_class_0::SimdFloatMultAcc            0      0.00%     64.73% # Class of committed instruction
system.cpu0.commit.op_class_0::SimdFloatSqrt            0      0.00%     64.73% # Class of committed instruction
system.cpu0.commit.op_class_0::MemRead       87892666     27.02%     91.76% # Class of committed instruction
system.cpu0.commit.op_class_0::MemWrite       8773791      2.70%     94.45% # Class of committed instruction
system.cpu0.commit.op_class_0::FloatMemRead     13528917      4.16%     98.61% # Class of committed instruction
system.cpu0.commit.op_class_0::FloatMemWrite      4514016      1.39%    100.00% # Class of committed instruction
system.cpu0.commit.op_class_0::IprAccess            0      0.00%    100.00% # Class of committed instruction
system.cpu0.commit.op_class_0::InstPrefetch            0      0.00%    100.00% # Class of committed instruction
system.cpu0.commit.op_class_0::total        325264048                       # Class of committed instruction
system.cpu0.commit.bw_lim_events             29637901                       # number cycles where commit BW limit reached
system.cpu0.rob.rob_reads                   404649831                       # The number of ROB reads
system.cpu0.rob.rob_writes                  692790243                       # The number of ROB writes
system.cpu0.timesIdled                            773                       # Number of times that the entire CPU went into an idle state and unscheduled itself
system.cpu0.idleCycles                         115918                       # Total number of cycles that the CPU has spent unscheduled due to idling
system.cpu0.committedInsts                  217448826                       # Number of Instructions Simulated
system.cpu0.committedOps                    325264048                       # Number of Ops (including micro ops) Simulated
system.cpu0.cpi                              0.423350                       # CPI: Cycles Per Instruction
system.cpu0.cpi_total                        0.423350                       # CPI: Total CPI of All Threads
system.cpu0.ipc                              2.362113                       # IPC: Instructions Per Cycle
system.cpu0.ipc_total                        2.362113                       # IPC: Total IPC of All Threads
system.cpu0.int_regfile_reads               533015028                       # number of integer regfile reads
system.cpu0.int_regfile_writes              267629481                       # number of integer regfile writes
system.cpu0.fp_regfile_reads                 34460196                       # number of floating regfile reads
system.cpu0.fp_regfile_writes                50556838                       # number of floating regfile writes
system.cpu0.cc_regfile_reads                 71692389                       # number of cc regfile reads
system.cpu0.cc_regfile_writes               148411734                       # number of cc regfile writes
system.cpu0.misc_regfile_reads              144947284                       # number of misc regfile reads
system.cpu0.misc_regfile_writes                    18                       # number of misc regfile writes
system.cpu0.dcache.tags.pwrStateResidencyTicks::UNDEFINED  30654955026                       # Cumulative time (in ticks) in various power states
system.cpu0.dcache.tags.replacements            75278                       # number of replacements
system.cpu0.dcache.tags.tagsinuse          511.605954                       # Cycle average of tags in use
system.cpu0.dcache.tags.total_refs           92686646                       # Total number of references to valid blocks.
system.cpu0.dcache.tags.sampled_refs            75790                       # Sample count of references to valid blocks.
system.cpu0.dcache.tags.avg_refs          1222.940309                       # Average number of references to valid blocks.
system.cpu0.dcache.tags.warmup_cycle           175158                       # Cycle when the warmup percentage was hit.
system.cpu0.dcache.tags.occ_blocks::cpu0.data   511.605954                       # Average occupied blocks per requestor
system.cpu0.dcache.tags.occ_percent::cpu0.data     0.999230                       # Average percentage of cache occupancy
system.cpu0.dcache.tags.occ_percent::total     0.999230                       # Average percentage of cache occupancy
system.cpu0.dcache.tags.occ_task_id_blocks::1024          512                       # Occupied blocks per task id
system.cpu0.dcache.tags.age_task_id_blocks_1024::0           32                       # Occupied blocks per task id
system.cpu0.dcache.tags.age_task_id_blocks_1024::1          311                       # Occupied blocks per task id
system.cpu0.dcache.tags.age_task_id_blocks_1024::2           99                       # Occupied blocks per task id
system.cpu0.dcache.tags.age_task_id_blocks_1024::3           19                       # Occupied blocks per task id
system.cpu0.dcache.tags.age_task_id_blocks_1024::4           51                       # Occupied blocks per task id
system.cpu0.dcache.tags.occ_task_id_percent::1024            1                       # Percentage of cache occupancy per task id
system.cpu0.dcache.tags.tag_accesses        742514718                       # Number of tag accesses
system.cpu0.dcache.tags.data_accesses       742514718                       # Number of data accesses
system.cpu0.dcache.pwrStateResidencyTicks::UNDEFINED  30654955026                       # Cumulative time (in ticks) in various power states
system.cpu0.dcache.ReadReq_hits::cpu0.data     79390107                       # number of ReadReq hits
system.cpu0.dcache.ReadReq_hits::total       79390107                       # number of ReadReq hits
system.cpu0.dcache.WriteReq_hits::cpu0.data     13296532                       # number of WriteReq hits
system.cpu0.dcache.WriteReq_hits::total      13296532                       # number of WriteReq hits
system.cpu0.dcache.demand_hits::cpu0.data     92686639                       # number of demand (read+write) hits
system.cpu0.dcache.demand_hits::total        92686639                       # number of demand (read+write) hits
system.cpu0.dcache.overall_hits::cpu0.data     92686639                       # number of overall hits
system.cpu0.dcache.overall_hits::total       92686639                       # number of overall hits
system.cpu0.dcache.ReadReq_misses::cpu0.data       116858                       # number of ReadReq misses
system.cpu0.dcache.ReadReq_misses::total       116858                       # number of ReadReq misses
system.cpu0.dcache.WriteReq_misses::cpu0.data         1369                       # number of WriteReq misses
system.cpu0.dcache.WriteReq_misses::total         1369                       # number of WriteReq misses
system.cpu0.dcache.demand_misses::cpu0.data       118227                       # number of demand (read+write) misses
system.cpu0.dcache.demand_misses::total        118227                       # number of demand (read+write) misses
system.cpu0.dcache.overall_misses::cpu0.data       118227                       # number of overall misses
system.cpu0.dcache.overall_misses::total       118227                       # number of overall misses
system.cpu0.dcache.ReadReq_miss_latency::cpu0.data   2717752860                       # number of ReadReq miss cycles
system.cpu0.dcache.ReadReq_miss_latency::total   2717752860                       # number of ReadReq miss cycles
system.cpu0.dcache.WriteReq_miss_latency::cpu0.data     95072499                       # number of WriteReq miss cycles
system.cpu0.dcache.WriteReq_miss_latency::total     95072499                       # number of WriteReq miss cycles
system.cpu0.dcache.demand_miss_latency::cpu0.data   2812825359                       # number of demand (read+write) miss cycles
system.cpu0.dcache.demand_miss_latency::total   2812825359                       # number of demand (read+write) miss cycles
system.cpu0.dcache.overall_miss_latency::cpu0.data   2812825359                       # number of overall miss cycles
system.cpu0.dcache.overall_miss_latency::total   2812825359                       # number of overall miss cycles
system.cpu0.dcache.ReadReq_accesses::cpu0.data     79506965                       # number of ReadReq accesses(hits+misses)
system.cpu0.dcache.ReadReq_accesses::total     79506965                       # number of ReadReq accesses(hits+misses)
system.cpu0.dcache.WriteReq_accesses::cpu0.data     13297901                       # number of WriteReq accesses(hits+misses)
system.cpu0.dcache.WriteReq_accesses::total     13297901                       # number of WriteReq accesses(hits+misses)
system.cpu0.dcache.demand_accesses::cpu0.data     92804866                       # number of demand (read+write) accesses
system.cpu0.dcache.demand_accesses::total     92804866                       # number of demand (read+write) accesses
system.cpu0.dcache.overall_accesses::cpu0.data     92804866                       # number of overall (read+write) accesses
system.cpu0.dcache.overall_accesses::total     92804866                       # number of overall (read+write) accesses
system.cpu0.dcache.ReadReq_miss_rate::cpu0.data     0.001470                       # miss rate for ReadReq accesses
system.cpu0.dcache.ReadReq_miss_rate::total     0.001470                       # miss rate for ReadReq accesses
system.cpu0.dcache.WriteReq_miss_rate::cpu0.data     0.000103                       # miss rate for WriteReq accesses
system.cpu0.dcache.WriteReq_miss_rate::total     0.000103                       # miss rate for WriteReq accesses
system.cpu0.dcache.demand_miss_rate::cpu0.data     0.001274                       # miss rate for demand accesses
system.cpu0.dcache.demand_miss_rate::total     0.001274                       # miss rate for demand accesses
system.cpu0.dcache.overall_miss_rate::cpu0.data     0.001274                       # miss rate for overall accesses
system.cpu0.dcache.overall_miss_rate::total     0.001274                       # miss rate for overall accesses
system.cpu0.dcache.ReadReq_avg_miss_latency::cpu0.data 23256.883226                       # average ReadReq miss latency
system.cpu0.dcache.ReadReq_avg_miss_latency::total 23256.883226                       # average ReadReq miss latency
system.cpu0.dcache.WriteReq_avg_miss_latency::cpu0.data 69446.675676                       # average WriteReq miss latency
system.cpu0.dcache.WriteReq_avg_miss_latency::total 69446.675676                       # average WriteReq miss latency
system.cpu0.dcache.demand_avg_miss_latency::cpu0.data 23791.734198                       # average overall miss latency
system.cpu0.dcache.demand_avg_miss_latency::total 23791.734198                       # average overall miss latency
system.cpu0.dcache.overall_avg_miss_latency::cpu0.data 23791.734198                       # average overall miss latency
system.cpu0.dcache.overall_avg_miss_latency::total 23791.734198                       # average overall miss latency
system.cpu0.dcache.blocked_cycles::no_mshrs        23501                       # number of cycles access was blocked
system.cpu0.dcache.blocked_cycles::no_targets          505                       # number of cycles access was blocked
system.cpu0.dcache.blocked::no_mshrs              377                       # number of cycles access was blocked
system.cpu0.dcache.blocked::no_targets              7                       # number of cycles access was blocked
system.cpu0.dcache.avg_blocked_cycles::no_mshrs    62.336870                       # average number of cycles each access was blocked
system.cpu0.dcache.avg_blocked_cycles::no_targets    72.142857                       # average number of cycles each access was blocked
system.cpu0.dcache.writebacks::writebacks         1933                       # number of writebacks
system.cpu0.dcache.writebacks::total             1933                       # number of writebacks
system.cpu0.dcache.ReadReq_mshr_hits::cpu0.data        42424                       # number of ReadReq MSHR hits
system.cpu0.dcache.ReadReq_mshr_hits::total        42424                       # number of ReadReq MSHR hits
system.cpu0.dcache.WriteReq_mshr_hits::cpu0.data            6                       # number of WriteReq MSHR hits
system.cpu0.dcache.WriteReq_mshr_hits::total            6                       # number of WriteReq MSHR hits
system.cpu0.dcache.demand_mshr_hits::cpu0.data        42430                       # number of demand (read+write) MSHR hits
system.cpu0.dcache.demand_mshr_hits::total        42430                       # number of demand (read+write) MSHR hits
system.cpu0.dcache.overall_mshr_hits::cpu0.data        42430                       # number of overall MSHR hits
system.cpu0.dcache.overall_mshr_hits::total        42430                       # number of overall MSHR hits
system.cpu0.dcache.ReadReq_mshr_misses::cpu0.data        74434                       # number of ReadReq MSHR misses
system.cpu0.dcache.ReadReq_mshr_misses::total        74434                       # number of ReadReq MSHR misses
system.cpu0.dcache.WriteReq_mshr_misses::cpu0.data         1363                       # number of WriteReq MSHR misses
system.cpu0.dcache.WriteReq_mshr_misses::total         1363                       # number of WriteReq MSHR misses
system.cpu0.dcache.demand_mshr_misses::cpu0.data        75797                       # number of demand (read+write) MSHR misses
system.cpu0.dcache.demand_mshr_misses::total        75797                       # number of demand (read+write) MSHR misses
system.cpu0.dcache.overall_mshr_misses::cpu0.data        75797                       # number of overall MSHR misses
system.cpu0.dcache.overall_mshr_misses::total        75797                       # number of overall MSHR misses
system.cpu0.dcache.ReadReq_mshr_miss_latency::cpu0.data   1371260034                       # number of ReadReq MSHR miss cycles
system.cpu0.dcache.ReadReq_mshr_miss_latency::total   1371260034                       # number of ReadReq MSHR miss cycles
system.cpu0.dcache.WriteReq_mshr_miss_latency::cpu0.data     93939966                       # number of WriteReq MSHR miss cycles
system.cpu0.dcache.WriteReq_mshr_miss_latency::total     93939966                       # number of WriteReq MSHR miss cycles
system.cpu0.dcache.demand_mshr_miss_latency::cpu0.data   1465200000                       # number of demand (read+write) MSHR miss cycles
system.cpu0.dcache.demand_mshr_miss_latency::total   1465200000                       # number of demand (read+write) MSHR miss cycles
system.cpu0.dcache.overall_mshr_miss_latency::cpu0.data   1465200000                       # number of overall MSHR miss cycles
system.cpu0.dcache.overall_mshr_miss_latency::total   1465200000                       # number of overall MSHR miss cycles
system.cpu0.dcache.ReadReq_mshr_miss_rate::cpu0.data     0.000936                       # mshr miss rate for ReadReq accesses
system.cpu0.dcache.ReadReq_mshr_miss_rate::total     0.000936                       # mshr miss rate for ReadReq accesses
system.cpu0.dcache.WriteReq_mshr_miss_rate::cpu0.data     0.000102                       # mshr miss rate for WriteReq accesses
system.cpu0.dcache.WriteReq_mshr_miss_rate::total     0.000102                       # mshr miss rate for WriteReq accesses
system.cpu0.dcache.demand_mshr_miss_rate::cpu0.data     0.000817                       # mshr miss rate for demand accesses
system.cpu0.dcache.demand_mshr_miss_rate::total     0.000817                       # mshr miss rate for demand accesses
system.cpu0.dcache.overall_mshr_miss_rate::cpu0.data     0.000817                       # mshr miss rate for overall accesses
system.cpu0.dcache.overall_mshr_miss_rate::total     0.000817                       # mshr miss rate for overall accesses
system.cpu0.dcache.ReadReq_avg_mshr_miss_latency::cpu0.data 18422.495553                       # average ReadReq mshr miss latency
system.cpu0.dcache.ReadReq_avg_mshr_miss_latency::total 18422.495553                       # average ReadReq mshr miss latency
system.cpu0.dcache.WriteReq_avg_mshr_miss_latency::cpu0.data 68921.471753                       # average WriteReq mshr miss latency
system.cpu0.dcache.WriteReq_avg_mshr_miss_latency::total 68921.471753                       # average WriteReq mshr miss latency
system.cpu0.dcache.demand_avg_mshr_miss_latency::cpu0.data 19330.580366                       # average overall mshr miss latency
system.cpu0.dcache.demand_avg_mshr_miss_latency::total 19330.580366                       # average overall mshr miss latency
system.cpu0.dcache.overall_avg_mshr_miss_latency::cpu0.data 19330.580366                       # average overall mshr miss latency
system.cpu0.dcache.overall_avg_mshr_miss_latency::total 19330.580366                       # average overall mshr miss latency
system.cpu0.dtb_walker_cache.tags.pwrStateResidencyTicks::UNDEFINED  30654955026                       # Cumulative time (in ticks) in various power states
system.cpu0.dtb_walker_cache.tags.replacements            0                       # number of replacements
system.cpu0.dtb_walker_cache.tags.tagsinuse            0                       # Cycle average of tags in use
system.cpu0.dtb_walker_cache.tags.total_refs            0                       # Total number of references to valid blocks.
system.cpu0.dtb_walker_cache.tags.sampled_refs            0                       # Sample count of references to valid blocks.
system.cpu0.dtb_walker_cache.tags.avg_refs          nan                       # Average number of references to valid blocks.
system.cpu0.dtb_walker_cache.tags.warmup_cycle            0                       # Cycle when the warmup percentage was hit.
system.cpu0.dtb_walker_cache.tags.tag_accesses            0                       # Number of tag accesses
system.cpu0.dtb_walker_cache.tags.data_accesses            0                       # Number of data accesses
system.cpu0.dtb_walker_cache.pwrStateResidencyTicks::UNDEFINED  30654955026                       # Cumulative time (in ticks) in various power states
system.cpu0.dtb_walker_cache.blocked_cycles::no_mshrs            0                       # number of cycles access was blocked
system.cpu0.dtb_walker_cache.blocked_cycles::no_targets            0                       # number of cycles access was blocked
system.cpu0.dtb_walker_cache.blocked::no_mshrs            0                       # number of cycles access was blocked
system.cpu0.dtb_walker_cache.blocked::no_targets            0                       # number of cycles access was blocked
system.cpu0.dtb_walker_cache.avg_blocked_cycles::no_mshrs          nan                       # average number of cycles each access was blocked
system.cpu0.dtb_walker_cache.avg_blocked_cycles::no_targets          nan                       # average number of cycles each access was blocked
system.cpu0.icache.tags.pwrStateResidencyTicks::UNDEFINED  30654955026                       # Cumulative time (in ticks) in various power states
system.cpu0.icache.tags.replacements              869                       # number of replacements
system.cpu0.icache.tags.tagsinuse          511.706337                       # Cycle average of tags in use
system.cpu0.icache.tags.total_refs           25380347                       # Total number of references to valid blocks.
system.cpu0.icache.tags.sampled_refs             1381                       # Sample count of references to valid blocks.
system.cpu0.icache.tags.avg_refs         18378.238233                       # Average number of references to valid blocks.
system.cpu0.icache.tags.warmup_cycle            81252                       # Cycle when the warmup percentage was hit.
system.cpu0.icache.tags.occ_blocks::cpu0.inst   511.706337                       # Average occupied blocks per requestor
system.cpu0.icache.tags.occ_percent::cpu0.inst     0.999426                       # Average percentage of cache occupancy
system.cpu0.icache.tags.occ_percent::total     0.999426                       # Average percentage of cache occupancy
system.cpu0.icache.tags.occ_task_id_blocks::1024          512                       # Occupied blocks per task id
system.cpu0.icache.tags.age_task_id_blocks_1024::4          512                       # Occupied blocks per task id
system.cpu0.icache.tags.occ_task_id_percent::1024            1                       # Percentage of cache occupancy per task id
system.cpu0.icache.tags.tag_accesses        203058487                       # Number of tag accesses
system.cpu0.icache.tags.data_accesses       203058487                       # Number of data accesses
system.cpu0.icache.pwrStateResidencyTicks::UNDEFINED  30654955026                       # Cumulative time (in ticks) in various power states
system.cpu0.icache.ReadReq_hits::cpu0.inst     25380347                       # number of ReadReq hits
system.cpu0.icache.ReadReq_hits::total       25380347                       # number of ReadReq hits
system.cpu0.icache.demand_hits::cpu0.inst     25380347                       # number of demand (read+write) hits
system.cpu0.icache.demand_hits::total        25380347                       # number of demand (read+write) hits
system.cpu0.icache.overall_hits::cpu0.inst     25380347                       # number of overall hits
system.cpu0.icache.overall_hits::total       25380347                       # number of overall hits
system.cpu0.icache.ReadReq_misses::cpu0.inst         1791                       # number of ReadReq misses
system.cpu0.icache.ReadReq_misses::total         1791                       # number of ReadReq misses
system.cpu0.icache.demand_misses::cpu0.inst         1791                       # number of demand (read+write) misses
system.cpu0.icache.demand_misses::total          1791                       # number of demand (read+write) misses
system.cpu0.icache.overall_misses::cpu0.inst         1791                       # number of overall misses
system.cpu0.icache.overall_misses::total         1791                       # number of overall misses
system.cpu0.icache.ReadReq_miss_latency::cpu0.inst    109035521                       # number of ReadReq miss cycles
system.cpu0.icache.ReadReq_miss_latency::total    109035521                       # number of ReadReq miss cycles
system.cpu0.icache.demand_miss_latency::cpu0.inst    109035521                       # number of demand (read+write) miss cycles
system.cpu0.icache.demand_miss_latency::total    109035521                       # number of demand (read+write) miss cycles
system.cpu0.icache.overall_miss_latency::cpu0.inst    109035521                       # number of overall miss cycles
system.cpu0.icache.overall_miss_latency::total    109035521                       # number of overall miss cycles
system.cpu0.icache.ReadReq_accesses::cpu0.inst     25382138                       # number of ReadReq accesses(hits+misses)
system.cpu0.icache.ReadReq_accesses::total     25382138                       # number of ReadReq accesses(hits+misses)
system.cpu0.icache.demand_accesses::cpu0.inst     25382138                       # number of demand (read+write) accesses
system.cpu0.icache.demand_accesses::total     25382138                       # number of demand (read+write) accesses
system.cpu0.icache.overall_accesses::cpu0.inst     25382138                       # number of overall (read+write) accesses
system.cpu0.icache.overall_accesses::total     25382138                       # number of overall (read+write) accesses
system.cpu0.icache.ReadReq_miss_rate::cpu0.inst     0.000071                       # miss rate for ReadReq accesses
system.cpu0.icache.ReadReq_miss_rate::total     0.000071                       # miss rate for ReadReq accesses
system.cpu0.icache.demand_miss_rate::cpu0.inst     0.000071                       # miss rate for demand accesses
system.cpu0.icache.demand_miss_rate::total     0.000071                       # miss rate for demand accesses
system.cpu0.icache.overall_miss_rate::cpu0.inst     0.000071                       # miss rate for overall accesses
system.cpu0.icache.overall_miss_rate::total     0.000071                       # miss rate for overall accesses
system.cpu0.icache.ReadReq_avg_miss_latency::cpu0.inst 60879.687884                       # average ReadReq miss latency
system.cpu0.icache.ReadReq_avg_miss_latency::total 60879.687884                       # average ReadReq miss latency
system.cpu0.icache.demand_avg_miss_latency::cpu0.inst 60879.687884                       # average overall miss latency
system.cpu0.icache.demand_avg_miss_latency::total 60879.687884                       # average overall miss latency
system.cpu0.icache.overall_avg_miss_latency::cpu0.inst 60879.687884                       # average overall miss latency
system.cpu0.icache.overall_avg_miss_latency::total 60879.687884                       # average overall miss latency
system.cpu0.icache.blocked_cycles::no_mshrs         1969                       # number of cycles access was blocked
system.cpu0.icache.blocked_cycles::no_targets            0                       # number of cycles access was blocked
system.cpu0.icache.blocked::no_mshrs               15                       # number of cycles access was blocked
system.cpu0.icache.blocked::no_targets              0                       # number of cycles access was blocked
system.cpu0.icache.avg_blocked_cycles::no_mshrs   131.266667                       # average number of cycles each access was blocked
system.cpu0.icache.avg_blocked_cycles::no_targets          nan                       # average number of cycles each access was blocked
system.cpu0.icache.writebacks::writebacks          869                       # number of writebacks
system.cpu0.icache.writebacks::total              869                       # number of writebacks
system.cpu0.icache.ReadReq_mshr_hits::cpu0.inst          408                       # number of ReadReq MSHR hits
system.cpu0.icache.ReadReq_mshr_hits::total          408                       # number of ReadReq MSHR hits
system.cpu0.icache.demand_mshr_hits::cpu0.inst          408                       # number of demand (read+write) MSHR hits
system.cpu0.icache.demand_mshr_hits::total          408                       # number of demand (read+write) MSHR hits
system.cpu0.icache.overall_mshr_hits::cpu0.inst          408                       # number of overall MSHR hits
system.cpu0.icache.overall_mshr_hits::total          408                       # number of overall MSHR hits
system.cpu0.icache.ReadReq_mshr_misses::cpu0.inst         1383                       # number of ReadReq MSHR misses
system.cpu0.icache.ReadReq_mshr_misses::total         1383                       # number of ReadReq MSHR misses
system.cpu0.icache.demand_mshr_misses::cpu0.inst         1383                       # number of demand (read+write) MSHR misses
system.cpu0.icache.demand_mshr_misses::total         1383                       # number of demand (read+write) MSHR misses
system.cpu0.icache.overall_mshr_misses::cpu0.inst         1383                       # number of overall MSHR misses
system.cpu0.icache.overall_mshr_misses::total         1383                       # number of overall MSHR misses
system.cpu0.icache.ReadReq_mshr_miss_latency::cpu0.inst     89544366                       # number of ReadReq MSHR miss cycles
system.cpu0.icache.ReadReq_mshr_miss_latency::total     89544366                       # number of ReadReq MSHR miss cycles
system.cpu0.icache.demand_mshr_miss_latency::cpu0.inst     89544366                       # number of demand (read+write) MSHR miss cycles
system.cpu0.icache.demand_mshr_miss_latency::total     89544366                       # number of demand (read+write) MSHR miss cycles
system.cpu0.icache.overall_mshr_miss_latency::cpu0.inst     89544366                       # number of overall MSHR miss cycles
system.cpu0.icache.overall_mshr_miss_latency::total     89544366                       # number of overall MSHR miss cycles
system.cpu0.icache.ReadReq_mshr_miss_rate::cpu0.inst     0.000054                       # mshr miss rate for ReadReq accesses
system.cpu0.icache.ReadReq_mshr_miss_rate::total     0.000054                       # mshr miss rate for ReadReq accesses
system.cpu0.icache.demand_mshr_miss_rate::cpu0.inst     0.000054                       # mshr miss rate for demand accesses
system.cpu0.icache.demand_mshr_miss_rate::total     0.000054                       # mshr miss rate for demand accesses
system.cpu0.icache.overall_mshr_miss_rate::cpu0.inst     0.000054                       # mshr miss rate for overall accesses
system.cpu0.icache.overall_mshr_miss_rate::total     0.000054                       # mshr miss rate for overall accesses
system.cpu0.icache.ReadReq_avg_mshr_miss_latency::cpu0.inst 64746.468547                       # average ReadReq mshr miss latency
system.cpu0.icache.ReadReq_avg_mshr_miss_latency::total 64746.468547                       # average ReadReq mshr miss latency
system.cpu0.icache.demand_avg_mshr_miss_latency::cpu0.inst 64746.468547                       # average overall mshr miss latency
system.cpu0.icache.demand_avg_mshr_miss_latency::total 64746.468547                       # average overall mshr miss latency
system.cpu0.icache.overall_avg_mshr_miss_latency::cpu0.inst 64746.468547                       # average overall mshr miss latency
system.cpu0.icache.overall_avg_mshr_miss_latency::total 64746.468547                       # average overall mshr miss latency
system.cpu0.itb_walker_cache.tags.pwrStateResidencyTicks::UNDEFINED  30654955026                       # Cumulative time (in ticks) in various power states
system.cpu0.itb_walker_cache.tags.replacements            0                       # number of replacements
system.cpu0.itb_walker_cache.tags.tagsinuse            0                       # Cycle average of tags in use
system.cpu0.itb_walker_cache.tags.total_refs            0                       # Total number of references to valid blocks.
system.cpu0.itb_walker_cache.tags.sampled_refs            0                       # Sample count of references to valid blocks.
system.cpu0.itb_walker_cache.tags.avg_refs          nan                       # Average number of references to valid blocks.
system.cpu0.itb_walker_cache.tags.warmup_cycle            0                       # Cycle when the warmup percentage was hit.
system.cpu0.itb_walker_cache.tags.tag_accesses            0                       # Number of tag accesses
system.cpu0.itb_walker_cache.tags.data_accesses            0                       # Number of data accesses
system.cpu0.itb_walker_cache.pwrStateResidencyTicks::UNDEFINED  30654955026                       # Cumulative time (in ticks) in various power states
system.cpu0.itb_walker_cache.blocked_cycles::no_mshrs            0                       # number of cycles access was blocked
system.cpu0.itb_walker_cache.blocked_cycles::no_targets            0                       # number of cycles access was blocked
system.cpu0.itb_walker_cache.blocked::no_mshrs            0                       # number of cycles access was blocked
system.cpu0.itb_walker_cache.blocked::no_targets            0                       # number of cycles access was blocked
system.cpu0.itb_walker_cache.avg_blocked_cycles::no_mshrs          nan                       # average number of cycles each access was blocked
system.cpu0.itb_walker_cache.avg_blocked_cycles::no_targets          nan                       # average number of cycles each access was blocked
system.cpu0.l2cache.tags.pwrStateResidencyTicks::UNDEFINED  30654955026                       # Cumulative time (in ticks) in various power states
system.cpu0.l2cache.tags.replacements           40056                       # number of replacements
system.cpu0.l2cache.tags.tagsinuse        4062.425185                       # Cycle average of tags in use
system.cpu0.l2cache.tags.total_refs            108991                       # Total number of references to valid blocks.
system.cpu0.l2cache.tags.sampled_refs           44152                       # Sample count of references to valid blocks.
system.cpu0.l2cache.tags.avg_refs            2.468540                       # Average number of references to valid blocks.
system.cpu0.l2cache.tags.warmup_cycle           78000                       # Cycle when the warmup percentage was hit.
system.cpu0.l2cache.tags.occ_blocks::writebacks     8.780213                       # Average occupied blocks per requestor
system.cpu0.l2cache.tags.occ_blocks::cpu0.inst    55.339813                       # Average occupied blocks per requestor
system.cpu0.l2cache.tags.occ_blocks::cpu0.data  3998.305159                       # Average occupied blocks per requestor
system.cpu0.l2cache.tags.occ_percent::writebacks     0.002144                       # Average percentage of cache occupancy
system.cpu0.l2cache.tags.occ_percent::cpu0.inst     0.013511                       # Average percentage of cache occupancy
system.cpu0.l2cache.tags.occ_percent::cpu0.data     0.976149                       # Average percentage of cache occupancy
system.cpu0.l2cache.tags.occ_percent::total     0.991803                       # Average percentage of cache occupancy
system.cpu0.l2cache.tags.occ_task_id_blocks::1024         4096                       # Occupied blocks per task id
system.cpu0.l2cache.tags.age_task_id_blocks_1024::0           32                       # Occupied blocks per task id
system.cpu0.l2cache.tags.age_task_id_blocks_1024::1          312                       # Occupied blocks per task id
system.cpu0.l2cache.tags.age_task_id_blocks_1024::2         1158                       # Occupied blocks per task id
system.cpu0.l2cache.tags.age_task_id_blocks_1024::3         2593                       # Occupied blocks per task id
system.cpu0.l2cache.tags.age_task_id_blocks_1024::4            1                       # Occupied blocks per task id
system.cpu0.l2cache.tags.occ_task_id_percent::1024            1                       # Percentage of cache occupancy per task id
system.cpu0.l2cache.tags.tag_accesses          657132                       # Number of tag accesses
system.cpu0.l2cache.tags.data_accesses         657132                       # Number of data accesses
system.cpu0.l2cache.pwrStateResidencyTicks::UNDEFINED  30654955026                       # Cumulative time (in ticks) in various power states
system.cpu0.l2cache.WritebackDirty_hits::writebacks         1933                       # number of WritebackDirty hits
system.cpu0.l2cache.WritebackDirty_hits::total         1933                       # number of WritebackDirty hits
system.cpu0.l2cache.WritebackClean_hits::writebacks          866                       # number of WritebackClean hits
system.cpu0.l2cache.WritebackClean_hits::total          866                       # number of WritebackClean hits
system.cpu0.l2cache.UpgradeReq_hits::cpu0.data            7                       # number of UpgradeReq hits
system.cpu0.l2cache.UpgradeReq_hits::total            7                       # number of UpgradeReq hits
system.cpu0.l2cache.ReadExReq_hits::cpu0.data           62                       # number of ReadExReq hits
system.cpu0.l2cache.ReadExReq_hits::total           62                       # number of ReadExReq hits
system.cpu0.l2cache.ReadCleanReq_hits::cpu0.inst           38                       # number of ReadCleanReq hits
system.cpu0.l2cache.ReadCleanReq_hits::total           38                       # number of ReadCleanReq hits
system.cpu0.l2cache.ReadSharedReq_hits::cpu0.data        33098                       # number of ReadSharedReq hits
system.cpu0.l2cache.ReadSharedReq_hits::total        33098                       # number of ReadSharedReq hits
system.cpu0.l2cache.demand_hits::cpu0.inst           38                       # number of demand (read+write) hits
system.cpu0.l2cache.demand_hits::cpu0.data        33160                       # number of demand (read+write) hits
system.cpu0.l2cache.demand_hits::total          33198                       # number of demand (read+write) hits
system.cpu0.l2cache.overall_hits::cpu0.inst           38                       # number of overall hits
system.cpu0.l2cache.overall_hits::cpu0.data        33160                       # number of overall hits
system.cpu0.l2cache.overall_hits::total         33198                       # number of overall hits
system.cpu0.l2cache.ReadExReq_misses::cpu0.data         1295                       # number of ReadExReq misses
[...]
system.l3.demand_mshr_miss_latency::cpu0.data    654696700                       # number of demand (read+write) MSHR miss cycles
system.l3.demand_mshr_miss_latency::cpu1.inst     68356472                       # number of demand (read+write) MSHR miss cycles
system.l3.demand_mshr_miss_latency::cpu1.data    776547851                       # number of demand (read+write) MSHR miss cycles
system.l3.demand_mshr_miss_latency::cpu2.inst     73511739                       # number of demand (read+write) MSHR miss cycles
system.l3.demand_mshr_miss_latency::cpu2.data    636047854                       # number of demand (read+write) MSHR miss cycles
system.l3.demand_mshr_miss_latency::cpu3.inst     67485349                       # number of demand (read+write) MSHR miss cycles
system.l3.demand_mshr_miss_latency::cpu3.data    679257993                       # number of demand (read+write) MSHR miss cycles
system.l3.demand_mshr_miss_latency::total   3025193762                       # number of demand (read+write) MSHR miss cycles
system.l3.overall_mshr_miss_latency::cpu0.inst     69289804                       # number of overall MSHR miss cycles
system.l3.overall_mshr_miss_latency::cpu0.data    654696700                       # number of overall MSHR miss cycles
system.l3.overall_mshr_miss_latency::cpu1.inst     68356472                       # number of overall MSHR miss cycles
system.l3.overall_mshr_miss_latency::cpu1.data    776547851                       # number of overall MSHR miss cycles
system.l3.overall_mshr_miss_latency::cpu2.inst     73511739                       # number of overall MSHR miss cycles
system.l3.overall_mshr_miss_latency::cpu2.data    636047854                       # number of overall MSHR miss cycles
system.l3.overall_mshr_miss_latency::cpu3.inst     67485349                       # number of overall MSHR miss cycles
system.l3.overall_mshr_miss_latency::cpu3.data    679257993                       # number of overall MSHR miss cycles
system.l3.overall_mshr_miss_latency::total   3025193762                       # number of overall MSHR miss cycles
system.l3.ReadExReq_mshr_miss_rate::cpu0.data     0.993822                       # mshr miss rate for ReadExReq accesses
system.l3.ReadExReq_mshr_miss_rate::cpu1.data     0.991616                       # mshr miss rate for ReadExReq accesses
system.l3.ReadExReq_mshr_miss_rate::cpu2.data     0.989297                       # mshr miss rate for ReadExReq accesses
system.l3.ReadExReq_mshr_miss_rate::cpu3.data     0.985507                       # mshr miss rate for ReadExReq accesses
system.l3.ReadExReq_mshr_miss_rate::total     0.990050                       # mshr miss rate for ReadExReq accesses
system.l3.ReadSharedReq_mshr_miss_rate::cpu0.inst     0.997765                       # mshr miss rate for ReadSharedReq accesses
system.l3.ReadSharedReq_mshr_miss_rate::cpu0.data     0.290159                       # mshr miss rate for ReadSharedReq accesses
system.l3.ReadSharedReq_mshr_miss_rate::cpu1.inst     0.997763                       # mshr miss rate for ReadSharedReq accesses
system.l3.ReadSharedReq_mshr_miss_rate::cpu1.data     0.284920                       # mshr miss rate for ReadSharedReq accesses
system.l3.ReadSharedReq_mshr_miss_rate::cpu2.inst            1                       # mshr miss rate for ReadSharedReq accesses
system.l3.ReadSharedReq_mshr_miss_rate::cpu2.data     0.288186                       # mshr miss rate for ReadSharedReq accesses
system.l3.ReadSharedReq_mshr_miss_rate::cpu3.inst     0.997041                       # mshr miss rate for ReadSharedReq accesses
system.l3.ReadSharedReq_mshr_miss_rate::cpu3.data     0.287018                       # mshr miss rate for ReadSharedReq accesses
system.l3.ReadSharedReq_mshr_miss_rate::total     0.309797                       # mshr miss rate for ReadSharedReq accesses
system.l3.demand_mshr_miss_rate::cpu0.inst     0.997765                       # mshr miss rate for demand accesses
system.l3.demand_mshr_miss_rate::cpu0.data     0.311534                       # mshr miss rate for demand accesses
system.l3.demand_mshr_miss_rate::cpu1.inst     0.997763                       # mshr miss rate for demand accesses
system.l3.demand_mshr_miss_rate::cpu1.data     0.306290                       # mshr miss rate for demand accesses
system.l3.demand_mshr_miss_rate::cpu2.inst            1                       # mshr miss rate for demand accesses
system.l3.demand_mshr_miss_rate::cpu2.data     0.309582                       # mshr miss rate for demand accesses
system.l3.demand_mshr_miss_rate::cpu3.inst     0.997041                       # mshr miss rate for demand accesses
system.l3.demand_mshr_miss_rate::cpu3.data     0.308284                       # mshr miss rate for demand accesses
system.l3.demand_mshr_miss_rate::total       0.329844                       # mshr miss rate for demand accesses
system.l3.overall_mshr_miss_rate::cpu0.inst     0.997765                       # mshr miss rate for overall accesses
system.l3.overall_mshr_miss_rate::cpu0.data     0.311534                       # mshr miss rate for overall accesses
system.l3.overall_mshr_miss_rate::cpu1.inst     0.997763                       # mshr miss rate for overall accesses
system.l3.overall_mshr_miss_rate::cpu1.data     0.306290                       # mshr miss rate for overall accesses
system.l3.overall_mshr_miss_rate::cpu2.inst            1                       # mshr miss rate for overall accesses
system.l3.overall_mshr_miss_rate::cpu2.data     0.309582                       # mshr miss rate for overall accesses
system.l3.overall_mshr_miss_rate::cpu3.inst     0.997041                       # mshr miss rate for overall accesses
system.l3.overall_mshr_miss_rate::cpu3.data     0.308284                       # mshr miss rate for overall accesses
system.l3.overall_mshr_miss_rate::total      0.329844                       # mshr miss rate for overall accesses
system.l3.ReadExReq_avg_mshr_miss_latency::cpu0.data 57740.061383                       # average ReadExReq mshr miss latency
system.l3.ReadExReq_avg_mshr_miss_latency::cpu1.data 73847.945427                       # average ReadExReq mshr miss latency
system.l3.ReadExReq_avg_mshr_miss_latency::cpu2.data 55606.833849                       # average ReadExReq mshr miss latency
system.l3.ReadExReq_avg_mshr_miss_latency::cpu3.data 54490.186533                       # average ReadExReq mshr miss latency
system.l3.ReadExReq_avg_mshr_miss_latency::total 60445.342095                       # average ReadExReq mshr miss latency
system.l3.ReadSharedReq_avg_mshr_miss_latency::cpu0.inst 51747.426438                       # average ReadSharedReq mshr miss latency
system.l3.ReadSharedReq_avg_mshr_miss_latency::cpu0.data 48389.631566                       # average ReadSharedReq mshr miss latency
system.l3.ReadSharedReq_avg_mshr_miss_latency::cpu1.inst 51088.544096                       # average ReadSharedReq mshr miss latency
system.l3.ReadSharedReq_avg_mshr_miss_latency::cpu1.data 56762.735569                       # average ReadSharedReq mshr miss latency
system.l3.ReadSharedReq_avg_mshr_miss_latency::cpu2.inst 54412.834197                       # average ReadSharedReq mshr miss latency
system.l3.ReadSharedReq_avg_mshr_miss_latency::cpu2.data 47105.854781                       # average ReadSharedReq mshr miss latency
system.l3.ReadSharedReq_avg_mshr_miss_latency::cpu3.inst 50063.315282                       # average ReadSharedReq mshr miss latency
system.l3.ReadSharedReq_avg_mshr_miss_latency::cpu3.data 50810.036886                       # average ReadSharedReq mshr miss latency
system.l3.ReadSharedReq_avg_mshr_miss_latency::total 50874.963651                       # average ReadSharedReq mshr miss latency
system.l3.demand_avg_mshr_miss_latency::cpu0.inst 51747.426438                       # average overall mshr miss latency
system.l3.demand_avg_mshr_miss_latency::cpu0.data 49295.738273                       # average overall mshr miss latency
system.l3.demand_avg_mshr_miss_latency::cpu1.inst 51088.544096                       # average overall mshr miss latency
system.l3.demand_avg_mshr_miss_latency::cpu1.data 58435.386485                       # average overall mshr miss latency
system.l3.demand_avg_mshr_miss_latency::cpu2.inst 54412.834197                       # average overall mshr miss latency
system.l3.demand_avg_mshr_miss_latency::cpu2.data 47934.874821                       # average overall mshr miss latency
system.l3.demand_avg_mshr_miss_latency::cpu3.inst 50063.315282                       # average overall mshr miss latency
system.l3.demand_avg_mshr_miss_latency::cpu3.data 51168.210395                       # average overall mshr miss latency
system.l3.demand_avg_mshr_miss_latency::total 51721.555172                       # average overall mshr miss latency
system.l3.overall_avg_mshr_miss_latency::cpu0.inst 51747.426438                       # average overall mshr miss latency
system.l3.overall_avg_mshr_miss_latency::cpu0.data 49295.738273                       # average overall mshr miss latency
system.l3.overall_avg_mshr_miss_latency::cpu1.inst 51088.544096                       # average overall mshr miss latency
system.l3.overall_avg_mshr_miss_latency::cpu1.data 58435.386485                       # average overall mshr miss latency
system.l3.overall_avg_mshr_miss_latency::cpu2.inst 54412.834197                       # average overall mshr miss latency
system.l3.overall_avg_mshr_miss_latency::cpu2.data 47934.874821                       # average overall mshr miss latency
system.l3.overall_avg_mshr_miss_latency::cpu3.inst 50063.315282                       # average overall mshr miss latency
system.l3.overall_avg_mshr_miss_latency::cpu3.data 51168.210395                       # average overall mshr miss latency
system.l3.overall_avg_mshr_miss_latency::total 51721.555172                       # average overall mshr miss latency
system.membus.snoop_filter.tot_requests         58490                       # Total number of requests made to the snoop filter.
system.membus.snoop_filter.hit_single_requests            0                       # Number of requests hitting in the snoop filter with a single holder of the requested data.
system.membus.snoop_filter.hit_multi_requests            0                       # Number of requests hitting in the snoop filter with multiple (>1) holders of the requested data.
system.membus.snoop_filter.tot_snoops               0                       # Total number of snoops made to the snoop filter.
system.membus.snoop_filter.hit_single_snoops            0                       # Number of snoops hitting in the snoop filter with a single holder of the requested data.
system.membus.snoop_filter.hit_multi_snoops            0                       # Number of snoops hitting in the snoop filter with multiple (>1) holders of the requested data.
system.membus.pwrStateResidencyTicks::UNDEFINED  30654955026                       # Cumulative time (in ticks) in various power states
system.membus.trans_dist::ReadResp              53316                       # Transaction distribution
system.membus.trans_dist::ReadExReq              5174                       # Transaction distribution
system.membus.trans_dist::ReadExResp             5174                       # Transaction distribution
system.membus.trans_dist::ReadSharedReq         53316                       # Transaction distribution
system.membus.pkt_count_system.l3.mem_side::system.mem_ctrls.port       116980                       # Packet count per connected master and slave (bytes)
system.membus.pkt_count_system.l3.mem_side::total       116980                       # Packet count per connected master and slave (bytes)
system.membus.pkt_count::total                 116980                       # Packet count per connected master and slave (bytes)
system.membus.pkt_size_system.l3.mem_side::system.mem_ctrls.port      3743360                       # Cumulative packet size per connected master and slave (bytes)
system.membus.pkt_size_system.l3.mem_side::total      3743360                       # Cumulative packet size per connected master and slave (bytes)
system.membus.pkt_size::total                 3743360                       # Cumulative packet size per connected master and slave (bytes)
system.membus.snoops                                0                       # Total snoops (count)
system.membus.snoopTraffic                          0                       # Total snoop traffic (bytes)
system.membus.snoop_fanout::samples             58490                       # Request fanout histogram
system.membus.snoop_fanout::mean                    0                       # Request fanout histogram
system.membus.snoop_fanout::stdev                   0                       # Request fanout histogram
system.membus.snoop_fanout::underflows              0      0.00%      0.00% # Request fanout histogram
system.membus.snoop_fanout::0                   58490    100.00%    100.00% # Request fanout histogram
system.membus.snoop_fanout::1                       0      0.00%    100.00% # Request fanout histogram
system.membus.snoop_fanout::overflows               0      0.00%    100.00% # Request fanout histogram
system.membus.snoop_fanout::min_value               0                       # Request fanout histogram
system.membus.snoop_fanout::max_value               0                       # Request fanout histogram
system.membus.snoop_fanout::total               58490                       # Request fanout histogram
system.membus.reqLayer8.occupancy            77384588                       # Layer occupancy (ticks)
system.membus.reqLayer8.utilization               0.3                       # Layer utilization (%)
system.membus.respLayer1.occupancy          318534693                       # Layer occupancy (ticks)
system.membus.respLayer1.utilization              1.0                       # Layer utilization (%)
system.tol3bus.snoop_filter.tot_requests       335998                       # Total number of requests made to the snoop filter.
system.tol3bus.snoop_filter.hit_single_requests       158693                       # Number of requests hitting in the snoop filter with a single holder of the requested data.
system.tol3bus.snoop_filter.hit_multi_requests            0                       # Number of requests hitting in the snoop filter with multiple (>1) holders of the requested data.
system.tol3bus.snoop_filter.tot_snoops              0                       # Total number of snoops made to the snoop filter.
system.tol3bus.snoop_filter.hit_single_snoops            0                       # Number of snoops hitting in the snoop filter with a single holder of the requested data.
system.tol3bus.snoop_filter.hit_multi_snoops            0                       # Number of snoops hitting in the snoop filter with multiple (>1) holders of the requested data.
system.tol3bus.pwrStateResidencyTicks::UNDEFINED  30654955026                       # Cumulative time (in ticks) in various power states
system.tol3bus.trans_dist::ReadResp            172100                       # Transaction distribution
system.tol3bus.trans_dist::WritebackDirty         5272                       # Transaction distribution
system.tol3bus.trans_dist::CleanEvict          153400                       # Transaction distribution
system.tol3bus.trans_dist::ReadExReq             5226                       # Transaction distribution
system.tol3bus.trans_dist::ReadExResp            5226                       # Transaction distribution
system.tol3bus.trans_dist::ReadSharedReq       172100                       # Transaction distribution
system.tol3bus.pkt_count_system.cpu0.l2cache.mem_side::system.l3.cpu_side       127235                       # Packet count per connected master and slave (bytes)
system.tol3bus.pkt_count_system.cpu1.l2cache.mem_side::system.l3.cpu_side       129529                       # Packet count per connected master and slave (bytes)
system.tol3bus.pkt_count_system.cpu2.l2cache.mem_side::system.l3.cpu_side       127978                       # Packet count per connected master and slave (bytes)
system.tol3bus.pkt_count_system.cpu3.l2cache.mem_side::system.l3.cpu_side       128582                       # Packet count per connected master and slave (bytes)
system.tol3bus.pkt_count::total                513324                       # Packet count per connected master and slave (bytes)
system.tol3bus.pkt_size_system.cpu0.l2cache.mem_side::system.l3.cpu_side      2897984                       # Cumulative packet size per connected master and slave (bytes)
system.tol3bus.pkt_size_system.cpu1.l2cache.mem_side::system.l3.cpu_side      2945152                       # Cumulative packet size per connected master and slave (bytes)
system.tol3bus.pkt_size_system.cpu2.l2cache.mem_side::system.l3.cpu_side      2916160                       # Cumulative packet size per connected master and slave (bytes)
system.tol3bus.pkt_size_system.cpu3.l2cache.mem_side::system.l3.cpu_side      2926976                       # Cumulative packet size per connected master and slave (bytes)
system.tol3bus.pkt_size::total               11686272                       # Cumulative packet size per connected master and slave (bytes)
system.tol3bus.snoops                               0                       # Total snoops (count)
system.tol3bus.snoopTraffic                         0                       # Total snoop traffic (bytes)
system.tol3bus.snoop_fanout::samples           177326                       # Request fanout histogram
system.tol3bus.snoop_fanout::mean                   0                       # Request fanout histogram
system.tol3bus.snoop_fanout::stdev                  0                       # Request fanout histogram
system.tol3bus.snoop_fanout::underflows             0      0.00%      0.00% # Request fanout histogram
system.tol3bus.snoop_fanout::0                 177326    100.00%    100.00% # Request fanout histogram
system.tol3bus.snoop_fanout::1                      0      0.00%    100.00% # Request fanout histogram
system.tol3bus.snoop_fanout::2                      0      0.00%    100.00% # Request fanout histogram
system.tol3bus.snoop_fanout::3                      0      0.00%    100.00% # Request fanout histogram
system.tol3bus.snoop_fanout::4                      0      0.00%    100.00% # Request fanout histogram
system.tol3bus.snoop_fanout::overflows              0      0.00%    100.00% # Request fanout histogram
system.tol3bus.snoop_fanout::min_value              0                       # Request fanout histogram
system.tol3bus.snoop_fanout::max_value              0                       # Request fanout histogram
system.tol3bus.snoop_fanout::total             177326                       # Request fanout histogram
system.tol3bus.reqLayer0.occupancy          465155529                       # Layer occupancy (ticks)
system.tol3bus.reqLayer0.utilization              1.5                       # Layer utilization (%)
system.tol3bus.respLayer0.occupancy         144375847                       # Layer occupancy (ticks)
system.tol3bus.respLayer0.utilization             0.5                       # Layer utilization (%)
system.tol3bus.respLayer1.occupancy         146904871                       # Layer occupancy (ticks)
system.tol3bus.respLayer1.utilization             0.5                       # Layer utilization (%)
system.tol3bus.respLayer2.occupancy         145190374                       # Layer occupancy (ticks)
system.tol3bus.respLayer2.utilization             0.5                       # Layer utilization (%)
system.tol3bus.respLayer3.occupancy         145848078                       # Layer occupancy (ticks)
system.tol3bus.respLayer3.utilization             0.5                       # Layer utilization (%)

---------- End Simulation Statistics   ----------
